ELEMENTS
O H C N  
END

SPECIES
C3H8	O	O2	CO
H	H2	OH	HO2
H2O2	H2O	CO2	N2
END

REACTIONS
!R1
C3H8 + 1.5O2 => 3CO + 4H2		1.5E+12		0.0		30000
		FORD/ C3H8  0.1 /
		FORD/ O2	1.65/
!R2
H + O2 = O + OH					2.2E+14		0.0		16800
!R3
H2 + O = H + OH					1.8E+10		1.0		8900
!R4
O + H2O = OH + OH				6.8E+13		0.0		18400
!R5
OH + H2 = H + H2O				2.2E+13		0.0		5100
!R6
H + O2 + M = HO2 + M			1.5E+15		0.0		-1000
!R7
O + HO2 = O2 + OH				5.0E+13		0.0		1000
!R8
H + HO2 = OH + OH				2.5E+14		0.0		1900
!R9
H + HO2 = H2 + O2				2.5E+13		0.0		700
!R10
OH + HO2 = H2O + O2				5.0E+13		0.0		1000
!R11
HO2 + HO2 = H2O2 + O2			1.0E+13		0.0		1000
!R12
H2O2 + M = OH + OH + M			1.2E+17		0.0		45500
!R13
HO2 + H2 = H2O2 + H				7.3E+11		0.0		18700
!R14
H2O2 + OH = H2O + HO2			1.0E+13		0.0		1800
!R15
CO + OH = CO2 + H				1.5E+07		1.3		-800
!R16
CO + O2 = CO2 + O				3.1E+11		0.0		37600
!R17
CO + O +M = CO2 + M				5.9E+15		0.0		4100
!R18
CO + HO2 = CO2 + OH				1.5E+14		0.0		23700
!R19
OH + M = O + H + M				8.0E+19		-1.0	103700
!R20
O2 + M = O + O + M				5.1E+15		0.0		115000
!R21
H2 + M = H + H + M				2.2E+14		0.0		96000
!R22
H2O + M = H + OH + M			2.2E+16		0.0		105000
END