units(length='cm', time='s', quantity='mol', act_energy='cal/mol')

ideal_gas(name="'Farnesane_Tanjin'",
          elements="C H N O Ar He",
          species="""h                 h2                o                 o2                oh                
                     oh*               h2o               n2                ho2               h2o2              
                     ar                co                co2               ch2o              hco               
                     ho2cho            hcoh              o2cho             hocho             ocho              
                     hoch2o2h          hoch2o2           och2o2h           hoch2o            ch3oh             
                     ch2oh             ch3o              ch3o2h            ch3o2             ch4               
                     ch3               ch2               ch2(s)            c                 ch                
                     ch*               c2h6              c2h5              c2h4              c2h3              
                     c2h2              c2h               ch3cho            c2h3oh            c2h2oh            
                     ch3co             ch2cho            o2ch2cho          ho2ch2co          ch2co             
                     hcco              hccoh             ch3co3h           ch3co3            ch3co2            
                     c2h5oh            c2h5o             pc2h4oh           sc2h4oh           o2c2h4oh          
                     c2h5o2h           c2h5o2            c2h4o2h           c2h4o1-2          c2h3o1-2          
                     ch3coch3          ch3coch2          ch3coch2o2        c3ket21           c2h3cho           
                     c2h3co            c2h5cho           c2h5co            ch3och3           ch3och2           
                     ch3och2o2         ch2och2o2h        ch3och2o2h        ch3och2o          o2ch2och2o2h      
                     ho2ch2ocho        och2ocho          hoch2oco          ch3ocho           ch3oco            
                     ch2ocho           he                c3h8              ic3h7             nc3h7             
                     c3h6              c3h5-a            c3h5-s            c3h5-t            c3h4-p            
                     c3h4-a            c3h3              c3h5o             c3h6ooh1-2        c3h6ooh1-3        
                     c3h6ooh2-1        c3h6ooh1-2o2      c3h6ooh1-3o2      c3h6ooh2-1o2      c3h6ooh2-2        
                     nc3h7o2h          ic3h7o2h          nc3h7o2           ic3h7o2           nc3h7o            
                     ic3h7o            c3h6o1-2          c3h6o1-3          c3ket12           c3ket13           
                     c3h51-2,3ooh      c3h52-1,3ooh      c3h6oh            hoc3h6o2          ch3chco           
                     ac3h5ooh          c2h3ooh           cc3h4             h2cc              c4h10             
                     c4h8-1            c4h8-2            pc4h9             sc4h9             c4h71-1           
                     c4h71-2           c4h71-3           c4h71-4           c4h72-2           c4h6              
                     pc4h9o2h          sc4h9o2h          pc4h9o2           sc4h9o2           pc4h9o            
                     sc4h9o            c4h7o             c4h8o1-2          c4h8o1-3          c4h8o1-4          
                     c4h8o2-3          pc4h8oh           sc4h8oh           c4h8oh-1o2        c4h8oh-2o2        
                     c4h8ooh1-1        c4h8ooh1-2        c4h8ooh1-3        c4h8ooh1-4        c4h8ooh2-1        
                     c4h8ooh2-2        c4h8ooh2-3        c4h8ooh2-4        c4h8ooh1-2o2      c4h8ooh1-3o2      
                     c4h8ooh1-4o2      c4h8ooh2-1o2      c4h8ooh2-3o2      c4h8ooh2-4o2      nc4ket12          
                     nc4ket13          nc4ket14          nc4ket21          nc4ket23          nc4ket24          
                     c2h5coch3         c2h5coch2         ch2ch2coch3       ch3chcoch3        c2h3coch3         
                     ch3choococh3      ch2choohcoch3     nc3h7cho          nc3h7co           c3h6cho-1         
                     c3h6cho-2         c3h6cho-3         c2h5chco          sc3h5cho          sc3h5co           
                     ch2ch2cho         ic4h10            ic4h9             tc4h9             ic4h8             
                     ic4h7             tc4h9o2           ic4h9o2           tc4h8o2h-i        ic4h8o2h-i        
                     ic4h8o2h-t        ic4h8o            cc4h8o            ic4h9o            tc4h9o            
                     ic4h9o2h          tc4h9o2h          ic4h7o            ic4h8oh           io2c4h8oh         
                     ic3h7cho          tc3h6cho          ic3h7co           ic3h6cho          tc4h8ooh-io2      
                     ic4h8ooh-io2      ic4h8ooh-to2      ic4ketii          ic4ketit          ic4h7oh           
                     ic4h6oh           ic3h5cho          ic3h5co           tc3h6ocho         ic3h6co           
                     ic4h7ooh          tc3h6ohcho        tc3h6oh           ic3h5oh           tc3h6o2cho        
                     tc3h6o2hco        ic3h5o2hcho       ch2cch2oh         tc4h8cho          o2c4h8cho         
                     o2hc4h8co         c3h5oh            tic4h7q2-i        iic4h7q2-t        iic4h7q2-i        
                     ch2o2h            c4h4              c4h3-i            c4h3-n            c4h612            
                     c4h2              c4h5-i            c4h5-n            ch3chchco         ch2chchcho        
                     c4h6o25           c2h3choch2        c4h5-2            c4h6-2            c4h6o23           
                     ch3chchcho        c4h4o             h2c4o             nc5h12            c5h11-1           
                     c5h11-2           c5h11-3           c5h10-1           c5h10-2           c5h81-3           
                     c5h91-3           c5h91-4           c5h91-5           c5h92-4           c5h92-5           
                     c5h9o1-3          c5h9o2-4          c5h11o2h-1        c5h11o2h-2        c5h11o2h-3        
                     c5h11o2-1         c5h11o2-2         c5h11o2-3         c5h11o-1          c5h11o-2          
                     c5h11o-3          c5h10ooh1-2       c5h10ooh1-3       c5h10ooh1-4       c5h10ooh1-5       
                     c5h10ooh2-1       c5h10ooh2-3       c5h10ooh2-4       c5h10ooh2-5       c5h10ooh3-2       
                     c5h10ooh3-1       c5h10o1-2         c5h10o1-3         c5h10o1-4         c5h10o1-5         
                     c5h10o2-3         c5h10o2-4         c5h10ooh1-2o2     c5h10ooh1-3o2     c5h10ooh1-4o2     
                     c5h10ooh1-5o2     c5h10ooh2-1o2     c5h10ooh2-3o2     c5h10ooh2-4o2     c5h10ooh2-5o2     
                     c5h10ooh3-1o2     c5h10ooh3-2o2     nc5ket12          nc5ket13          nc5ket14          
                     nc5ket15          nc5ket21          nc5ket23          nc5ket24          nc5ket25          
                     nc5ket31          nc5ket32          c5h10oh-1         c5h10oh-2         o2c5h10oh-1       
                     o2c5h10oh-2       nc6h14            c6h13-1           c6h13-2           c6h13-3           
                     c6h12-1           c6h12-2           c6h12-3           c6h111-3          c6h111-4          
                     c6h111-5          c6h111-6          c6h112-4          c6h112-5          c6h112-6          
                     c6h113-1          c6h11o1-3         c6h11o2-4         c6h12o1-2         c6h12o1-3         
                     c6h12o1-4         c6h12o1-5         c6h12o2-3         c6h12o2-4         c6h12o2-5         
                     c6h12o3-4         c6h13o2h-1        c6h13o2h-2        c6h13o2h-3        c6h13o2-1         
                     c6h13o2-2         c6h13o2-3         c6h12ooh1-2       c6h12ooh1-3       c6h12ooh1-4       
                     c6h12ooh1-5       c6h12ooh2-1       c6h12ooh2-3       c6h12ooh2-4       c6h12ooh2-5       
                     c6h12ooh2-6       c6h12ooh3-1       c6h12ooh3-2       c6h12ooh3-4       c6h12ooh3-5       
                     c6h12ooh3-6       c6h12ooh1-2o2     c6h12ooh1-3o2     c6h12ooh1-4o2     c6h12ooh1-5o2     
                     c6h12ooh2-1o2     c6h12ooh2-3o2     c6h12ooh2-4o2     c6h12ooh2-5o2     c6h12ooh2-6o2     
                     c6h12ooh3-1o2     c6h12ooh3-2o2     c6h12ooh3-4o2     c6h12ooh3-5o2     c6h12ooh3-6o2     
                     nc6ket12          nc6ket13          nc6ket14          nc6ket15          nc6ket21          
                     nc6ket23          nc6ket24          nc6ket25          nc6ket26          nc6ket31          
                     nc6ket32          nc6ket34          nc6ket35          nc6ket36          c6h13o-1          
                     c6h13o-2          c6h13o-3          c6h12oh-1         c6h12oh-2         c6h12oh-3         
                     o2c6h12oh-1       o2c6h12oh-2       o2c6h12oh-3       nc4h9cho          nc4h9co           
                     c4h8cho-1         c4h8cho-2         c4h8cho-3         c4h8cho-4         ac3h5cho          
                     ac3h5co           c2h3chcho         nc3h7coch3        nc3h7coch2        c3h6coch3-1       
                     c3h6coch3-2       c3h6coch3-3       c2h5coc2h5        c2h5coc2h4p       c2h5coc2h4s       
                     c2h5coc2h3        pc2h4coc2h3       sc2h4coc2h3       nc7h16            c7h15-1           
                     c7h15-2           c7h15-3           c7h15-4           c7h14-1           c7h14-2           
                     c7h14-3           c7h131-3          c7h131-4          c7h131-5          c7h131-6          
                     c7h131-7          c7h132-4          c7h132-5          c7h132-6          c7h132-7          
                     c7h133-1          c7h133-5          c7h133-6          c7h133-7          c7h13o1-3         
                     c7h13o2-4         c7h13o3-5         c7h15o2-1         c7h15o2-2         c7h15o2-3         
                     c7h15o2-4         c7h15o2h-1        c7h15o2h-2        c7h15o2h-3        c7h15o2h-4        
                     c7h15o-1          c7h15o-2          c7h15o-3          c7h15o-4          c7h14ooh1-2       
                     c7h14ooh1-3       c7h14ooh1-4       c7h14ooh1-5       c7h14ooh2-1       c7h14ooh2-3       
                     c7h14ooh2-4       c7h14ooh2-5       c7h14ooh2-6       c7h14ooh3-1       c7h14ooh3-2       
                     c7h14ooh3-4       c7h14ooh3-5       c7h14ooh3-6       c7h14ooh3-7       c7h14ooh4-1       
                     c7h14ooh4-2       c7h14ooh4-3       c7h14ooh1-2o2     c7h14ooh1-3o2     c7h14ooh1-4o2     
                     c7h14ooh1-5o2     c7h14ooh2-1o2     c7h14ooh2-3o2     c7h14ooh2-4o2     c7h14ooh2-5o2     
                     c7h14ooh2-6o2     c7h14ooh3-1o2     c7h14ooh3-2o2     c7h14ooh3-4o2     c7h14ooh3-5o2     
                     c7h14ooh3-6o2     c7h14ooh3-7o2     c7h14ooh4-1o2     c7h14ooh4-2o2     c7h14ooh4-3o2     
                     c7h14o1-2         c7h14o1-3         c7h14o1-4         c7h14o1-5         c7h14o2-3         
                     c7h14o2-4         c7h14o2-5         c7h14o2-6         c7h14o3-4         c7h14o3-5         
                     nc7ket12          nc7ket13          nc7ket14          nc7ket15          nc7ket21          
                     nc7ket23          nc7ket24          nc7ket25          nc7ket26          nc7ket31          
                     nc7ket32          nc7ket34          nc7ket35          nc7ket36          nc7ket37          
                     nc7ket41          nc7ket42          nc7ket43          c7h14oh-1         c7h14oh-2         
                     c7h14oh-3         o2c7h14oh-1       o2c7h14oh-2       o2c7h14oh-3       nc5h11cho         
                     nc5h11co          c5h10cho-1        c5h10cho-2        c5h10cho-3        c5h10cho-4        
                     c5h10cho-5        c4h7cho1-4        c4h7co1-4         c4h6cho1-43       c4h6cho1-44       
                     nc4h9coch3        nc4h9coch2        c4h8coch3-1       c4h8coch3-2       c4h8coch3-3       
                     c4h8coch3-4       c4h7ooh1-4        c4h7o1-4          c5h9ooh1-4        c5h9o1-4          
                     c5h9ooh1-5        c5h9o1-5          c6h11ooh1-4       c6h11o1-4         c6h11ooh1-5       
                     c6h11o1-5         c5h91-1           c4h7cho1-1        c4h7co1-1         c4h6cho1-14       
                     c4h6cho1-13       nc3h7coc2h5       c3h6coc2h5-1      c3h6coc2h5-2      c3h6coc2h5-3      
                     nc3h7coc2h4p      nc3h7coc2h4s      chchcho           c6h101-3          c6h101-4          
                     c6h101-5          c6h102-4          etes1             mvox              vthf              
                     edhf              etc6              kes1              c6h111o2h-3       c6h111o2h-4       
                     c6h111o2h-5       c6h111o2h-6       c6h112o2h-4       c6h112o2h-5       c6h112o2h-6       
                     c6h113o2h-2       c6h113o2h-1       nc6d1ket34        nc6d1ket35        nc6d1ket36        
                     nc6d1ket43        nc6d1ket45        nc6d1ket46        nc6d1ket53        nc6d1ket54        
                     nc6d1ket56        nc6d1ket63        nc6d1ket64        nc6d1ket65        nc6d2ket45        
                     nc6d2ket46        nc6d2ket54        nc6d2ket56        nc6d2ket64        nc6d2ket65        
                     nc6d3ket12        nc6d3ket21        c6h112o2-1        c6h111o2-3        c6h111o2-4        
                     c6h111o2-5        c6h111o2-6        c6h112o2-4        c6h112o2-5        c6h112o2-6        
                     c6h113o2-1        c6h113o2-2        c6h101ooh3-4      c6h101ooh3-5      c6h101ooh3-6      
                     c6h101ooh4-3      c6h101ooh4-5      c6h101ooh4-6      c6h101ooh5-3      c6h101ooh5-4      
                     c6h101ooh5-6      c6h101ooh6-3      c6h101ooh6-4      c6h101ooh6-5      c6h101ooh3-4o2    
                     c6h101ooh3-5o2    c6h101ooh3-6o2    c6h101ooh4-3o2    c6h101ooh4-5o2    c6h101ooh4-6o2    
                     c6h101ooh5-3o2    c6h101ooh5-4o2    c6h101ooh5-6o2    c6h101ooh6-3o2    c6h101ooh6-4o2    
                     c6h101ooh6-5o2    c6h102ooh5-4      c6h103ooh1-2      c6h102ooh4-5      c6h102ooh4-6      
                     c6h102ooh5-6      c6h102ooh6-4      c6h102ooh6-5      c6h103ooh2-1      c6h102ooh4-5o2    
                     c6h102ooh4-6o2    c6h102ooh5-4o2    c6h102ooh5-6o2    c6h102ooh6-4o2    c6h102ooh6-5o2    
                     c6h103ooh2-1o2    c6h103ooh1-2o2    c2h3coc3h7        c5h81-4           c5h91o2-3         
                     c5h91o2-4         c5h91o2-5         c5h81ooh3-4       c5h81ooh3-5       c5h81ooh4-3       
                     c5h81ooh4-5       c5h81ooh5-4       c5h81ooh5-3       c5h92o2-1         c5h81ooh3-4o2     
                     c5h81ooh3-5o2     c5h81ooh4-3o2     c5h81ooh4-5o2     c5h81ooh5-3o2     c5h81ooh5-4o2     
                     nc5d1ket34        nc5d1ket35        nc5d1ket43        nc5d1ket45        nc5d1ket53        
                     nc5d1ket54        cy3c5h8o          ic5ketdb          ic6keteb          nc8h18            
                     c8h17-1           c8h17-2           c8h17-3           c8h17-4           c8h16-1           
                     c8h16-2           c8h16-3           c8h16-4           nc3h7coc2h3       nc4h9coc2h3       
                     c5h11coc2h3       c6h13coc2h3       nc3h7chco         nc4h9chco         nc8h17cho         
                     nc7h15cho         nc6h13cho         nc8h17co          nc7h15co          nc6h13co          
                     c5h10cho5-2       c4h8cho4-2        ic8h17cho         ic7h15cho         ic6h13cho         
                     ic5h11cho         ic4h9cho          ic8h17co          ic7h15co          ic6h13co          
                     ic5h11co          ic4h9co           nc8h17coch2       nc7h15coch2       nc6h13coch2       
                     nc5h11coch2       ic8h17coch2       ic7h15coch2       ic6h13coch2       ic5h11coch2       
                     ic4h9coch2        ic3h7coch2        nc8h17coc2h4p     nc7h15coc2h4p     nc6h13coc2h4p     
                     nc5h11coc2h4p     nc4h9coc2h4p      ic8h17coc2h4p     ic7h15coc2h4p     ic6h13coc2h4p     
                     ic5h11coc2h4p     ic4h9coc2h4p      ic3h7coc2h4p      nc8h17coc2h3      nc7h15coc2h3      
                     nc6h13coc2h3      nc5h11coc2h3      nc8h17coc3h6p     nc7h15coc3h6p     nc6h13coc3h6p     
                     nc5h11coc3h6p     nc4h9coc3h6p      nc3h7coc3h6p      ic8h17coc3h6p     ic7h15coc3h6p     
                     ic6h13coc3h6p     ic5h11coc3h6p     ic4h9coc3h6p      ic3h7coc3h6p      ic5h11cochch3     
                     ic4h9coc3h6s      ic3h7coc4h8s      nc5h11chco        nc6h13chco        nc7h15chco        
                     ic3h7chco         ch3chcho          ch3chocho         ic3h7coc2h3       ic3h6coc2h3       
                     tc3h6coc2h3       c8h15             ac6h13            bc6h13            cc6h13            
                     ac6h12            bc6h12            ec6h13            dc6h13            dc6h12            
                     cc6h12            ic6h11            ac5h11            bc5h11            cc5h11            
                     dc5h11            ac5h10            bc5h10            cc5h10            ic5h9             
                     lc6h13            mc6h13            nc6h13            oc6h13            lc6h12            
                     mc6h12            nc6h12            c6h11-3           c7h16-2           c7h15-2a          
                     c7h15-2b          c7h15-2c          c7h15-2d          c7h15-2e          c7h15-2f          
                     c7h14-1-2         c7h14-2-2         c7h14-3-2         c7h14-4-2         c7h14-5-2         
                     c7h13-1-2         c8h18-2           c8h17-2a          c8h17-2b          c8h17-2c          
                     c8h17-2d          c8h17-2e          c8h17-2f          c8h17-2g          c8h16-1-2         
                     c8h16-2-2         c8h16-3-2         c8h16-4-2         c8h16-5-2         c8h16-6-2         
                     c8h15-1-2         c7h16-24          c7h15-24a         c7h15-24b         c7h15-24c         
                     c7h14-1-24        c7h14-2-24        c7h13-1-24        c8h18-25          c8h17-25a         
                     c8h17-25b         c8h17-25c         c8h16-1-25        c8h16-2-25        c8h16-3-25        
                     c8h15-1-25        c8h17o-1-25       c8h17o-2-25       c8h17o-3-25       c8h17oo-1-25      
                     c8h17oo-2-25      c8h17oo-3-25      c8h17ooh-1-25     c8h17ooh-2-25     c8h17ooh-3-25     
                     c8ooh1-25a        c8ooh1-25b        c8ooh1-25c        c8ooh1-25d        c8ooh1-25e        
                     c8ooh2-25a        c8ooh2-25c        c8ooh2-25d        c8ooh2-25e        c8ooh2-25f        
                     c8ooh3-25a        c8ooh3-25b        c8ooh3-25d        c8ooh3-25e        c8ooh3-25f        
                     c8ooh1-oo1-25     c8ooh1-oo2-25     c8ooh1-oo3-25     c8ooh1-oo4-25     c8ooh1-oo5-25     
                     c8ooh2-oo1-25     c8ooh2-oo3-25     c8ooh2-oo4-25     c8ooh2-oo5-25     c8ooh2-oo6-25     
                     c8ooh3-oo1-25     c8ooh3-oo2-25     c8ooh3-oo4-25     c8ooh3-oo5-25     c8ooh3-oo6-25     
                     c8h16o1-1-25      c8h16o1-2-25      c8h16o1-3-25      c8h16o1-4-25      c8h16o1-5-25      
                     c8h16o2-3-25      c8h16o2-4-25      c8h16o2-5-25      c8h16o3-4-25      c8ket1-1-25       
                     c8ket1-2-25       c8ket1-3-25       c8ket1-4-25       c8ket1-5-25       c8ket3-1-25       
                     c8ket3-2-25       c8ket3-4-25       c8ket3-5-25       c8ket3-6-25       c9h20_26          
                     c9h19_26_a        c9h19_26_b        c9h19_26_c        c9h19_26_d        c9h18_1_26        
                     c9h18_2_26        c9h18_3_26        c9h17_1_1_26      c9h19o_1_26       c9h19o_2_26       
                     c9h19o_3_26       c9h19o_4_26       c9h19oo_1_26      c9h19oo_2_26      c9h19oo_3_26      
                     c9h19oo_4_26      c9h19ooh_1_26     c9h19ooh_2_26     c9h19ooh_3_26     c9h19ooh_4_26     
                     c9ooh_1_26_b      c9ooh_1_26_c      c9ooh_1_26_d      c9ooh_1_26_e      c9ooh_1_26_f      
                     c9ooh_1_26_g      c9ooh_2_26_a      c9ooh_2_26_c      c9ooh_2_26_d      c9ooh_2_26_e      
                     c9ooh_2_26_f      c9ooh_2_26_g      c9ooh_3_26_a      c9ooh_3_26_b      c9ooh_3_26_d      
                     c9ooh_3_26_e      c9ooh_3_26_f      c9ooh_3_26_g      c9ooh_4_26_a      c9ooh_4_26_b      
                     c9ooh_4_26_c      c9ooh_1_oo_1_26   c9ooh_1_oo_2_26   c9ooh_1_oo_3_26   c9ooh_1_oo_4_26   
                     c9ooh_1_oo_5_26   c9ooh_1_oo_6_26   c9ooh_2_oo_1_26   c9ooh_2_oo_3_26   c9ooh_2_oo_4_26   
                     c9ooh_2_oo_5_26   c9ooh_2_oo_6_26   c9ooh_2_oo_7_26   c9ooh_3_oo_1_26   c9ooh_3_oo_2_26   
                     c9ooh_3_oo_4_26   c9ooh_3_oo_5_26   c9ooh_3_oo_6_26   c9ooh_3_oo_7_26   c9ooh_4_oo_1_26   
                     c9ooh_4_oo_2_26   c9ooh_4_oo_3_26   c9h18o_1_1_26     c9h18o_1_2_26     c9h18o_1_3_26     
                     c9h18o_1_4_26     c9h18o_1_5_26     c9h18o_1_6_26     c9h18o_2_3_26     c9h18o_2_4_26     
                     c9h18o_2_5_26     c9h18o_2_6_26     c9h18o_3_4_26     c9h18o_3_5_26     c9ket_1_1_26      
                     c9ket_1_2_26      c9ket_1_3_26      c9ket_1_4_26      c9ket_1_5_26      c9ket_1_6_26      
                     c9ket_3_1_26      c9ket_3_2_26      c9ket_3_4_26      c9ket_3_5_26      c9ket_3_6_26      
                     c9ket_3_7_26      c9ket_4_1_26      c9ket_4_2_26      c9ket_4_3_26      c15h32_2610       
                     c15h31_2610_a     c15h31_2610_b     c15h31_2610_c     c15h31_2610_d     c15h31_2610_e     
                     c15h31_2610_f     c15h31_2610_g     c15h31_2610_h     c15h31_2610_i     c15h31_2610_j     
                     c15h31_2610_k     c15h31_2610_l     c15h31_2610_m     c15h31_2610_n     c15h30_1_2610     
                     c15h30_2_2610     c15h30_3_2610     c15h30_4_2610     c15h30_5_2610     c15h30_6_2610     
                     c15h30_6_2610-2   c15h30_7_2610     c15h30_8_2610     c15h30_9_2610     c15h30_10_2610    
                     c15h30_10_2610-2  c15h30_11_2610    c15h29_1_1_2610   c15h31o_1_2610    c15h31o_2_2610    
                     c15h31o_3_2610    c15h31o_4_2610    c15h31o_5_2610    c15h31o_6_2610    c15h31o_7_2610    
                     c15h31o_8_2610    c15h31o_9_2610    c15h31o_10_2610   c15h31o_11_2610   c15h31o_12_2610   
                     c15h31o_13_2610   c15h31o_14_2610   c15h31oo_1_2610   c15h31oo_2_2610   c15h31oo_3_2610   
                     c15h31oo_4_2610   c15h31oo_5_2610   c15h31oo_6_2610   c15h31oo_7_2610   c15h31oo_8_2610   
                     c15h31oo_9_2610   c15h31oo_10_2610  c15h31oo_11_2610  c15h31oo_12_2610  c15h31oo_13_2610  
                     c15h31oo_14_2610  c15h31ooh_1       c15h31ooh_2       c15h31ooh_3       c15h31ooh_4       
                     c15h31ooh_5       c15h31ooh_6       c15h31ooh_7       c15h31ooh_8       c15h31ooh_9       
                     c15h31ooh_10      c15h31ooh_11      c15h31ooh_12      c15h31ooh_13      c15h31ooh_14      
                     c15ooh_1_2610_a   c15ooh_1_2610_b   c15ooh_1_2610_c   c15ooh_1_2610_d   c15ooh_1_2610_e   
                     c15ooh_1_2610_f   c15ooh_2_2610_a   c15ooh_2_2610_c   c15ooh_2_2610_d   c15ooh_2_2610_e   
                     c15ooh_2_2610_f   c15ooh_2_2610_g   c15ooh_2_2610_h   c15ooh_3_2610_a   c15ooh_3_2610_b   
                     c15ooh_3_2610_d   c15ooh_3_2610_e   c15ooh_3_2610_f   c15ooh_3_2610_g   c15ooh_3_2610_h   
                     c15ooh_3_2610_i   c15ooh_4_2610_a   c15ooh_4_2610_b   c15ooh_4_2610_c   c15ooh_4_2610_e   
                     c15ooh_4_2610_f   c15ooh_4_2610_g   c15ooh_4_2610_h   c15ooh_4_2610_i   c15ooh_4_2610_j   
                     c15ooh_5_2610_a   c15ooh_5_2610_b   c15ooh_5_2610_c   c15ooh_5_2610_d   c15ooh_5_2610_f   
                     c15ooh_5_2610_g   c15ooh_5_2610_h   c15ooh_5_2610_i   c15ooh_5_2610_j   c15ooh_5_2610_k   
                     c15ooh_6_2610_a   c15ooh_6_2610_b   c15ooh_6_2610_c   c15ooh_6_2610_d   c15ooh_6_2610_e   
                     c15ooh_6_2610_g   c15ooh_6_2610_h   c15ooh_6_2610_i   c15ooh_6_2610_j   c15ooh_6_2610_k   
                     c15ooh_6_2610_l   c15ooh_6_2610_m   c15ooh_7_2610_b   c15ooh_7_2610_c   c15ooh_7_2610_d   
                     c15ooh_7_2610_e   c15ooh_7_2610_f   c15ooh_7_2610_h   c15ooh_7_2610_i   c15ooh_7_2610_j   
                     c15ooh_7_2610_k   c15ooh_8_2610_b   c15ooh_8_2610_c   c15ooh_8_2610_d   c15ooh_8_2610_e   
                     c15ooh_8_2610_f   c15ooh_8_2610_g   c15ooh_8_2610_i   c15ooh_8_2610_j   c15ooh_8_2610_k   
                     c15ooh_8_2610_l   c15ooh_8_2610_m   c15ooh_8_2610_n   c15ooh_9_2610_c   c15ooh_9_2610_d   
                     c15ooh_9_2610_e   c15ooh_9_2610_f   c15ooh_9_2610_g   c15ooh_9_2610_h   c15ooh_9_2610_j   
                     c15ooh_9_2610_k   c15ooh_9_2610_l   c15ooh_9_2610_m   c15ooh_9_2610_n   c15ooh_10_2610_d  
                     c15ooh_10_2610_e  c15ooh_10_2610_f  c15ooh_10_2610_g  c15ooh_10_2610_h  c15ooh_10_2610_i  
                     c15ooh_10_2610_k  c15ooh_10_2610_l  c15ooh_10_2610_m  c15ooh_10_2610_n  c15ooh_11_2610_e  
                     c15ooh_11_2610_f  c15ooh_11_2610_g  c15ooh_11_2610_h  c15ooh_11_2610_i  c15ooh_11_2610_j  
                     c15ooh_11_2610_l  c15ooh_11_2610_m  c15ooh_11_2610_n  c15ooh_12_2610_f  c15ooh_12_2610_h  
                     c15ooh_12_2610_i  c15ooh_12_2610_j  c15ooh_12_2610_k  c15ooh_12_2610_m  c15ooh_12_2610_n  
                     c15ooh_13_2610_f  c15ooh_13_2610_h  c15ooh_13_2610_i  c15ooh_13_2610_j  c15ooh_13_2610_k  
                     c15ooh_13_2610_l  c15ooh_13_2610_n  c15ooh_14_2610_h  c15ooh_14_2610_i  c15ooh_14_2610_j  
                     c15ooh_14_2610_k  c15ooh_14_2610_l  c15ooh_14_2610_m  c15_1_oo1_2610    c15_1_oo2_2610    
                     c15_1_oo3_2610    c15_1_oo4_2610    c15_1_oo5_2610    c15_1_oo6_2610    c15_2_oo1_2610    
                     c15_2_oo3_2610    c15_2_oo4_2610    c15_2_oo5_2610    c15_2_oo6_2610    c15_2_oo7_2610    
                     c15_2_oo8_2610    c15_3_oo1_2610    c15_3_oo2_2610    c15_3_oo4_2610    c15_3_oo5_2610    
                     c15_3_oo6_2610    c15_3_oo7_2610    c15_3_oo8_2610    c15_3_oo9_2610    c15_4_oo1_2610    
                     c15_4_oo2_2610    c15_4_oo3_2610    c15_4_oo5_2610    c15_4_oo6_2610    c15_4_oo7_2610    
                     c15_4_oo8_2610    c15_4_oo9_2610    c15_4_oo10_2610   c15_5_oo1_2610    c15_5_oo2_2610    
                     c15_5_oo3_2610    c15_5_oo4_2610    c15_5_oo6_2610    c15_5_oo7_2610    c15_5_oo8_2610    
                     c15_5_oo9_2610    c15_5_oo10_2610   c15_5_oo11_2610   c15_6_oo1_2610    c15_6_oo2_2610    
                     c15_6_oo3_2610    c15_6_oo4_2610    c15_6_oo5_2610    c15_6_oo7_2610    c15_6_oo8_2610    
                     c15_6_oo9_2610    c15_6_oo10_2610   c15_6_oo11_2610   c15_6_oo12_2610   c15_6_oo13_2610   
                     c15_7_oo2_2610    c15_7_oo3_2610    c15_7_oo4_2610    c15_7_oo5_2610    c15_7_oo6_2610    
                     c15_7_oo8_2610    c15_7_oo9_2610    c15_7_oo10_2610   c15_7_oo11_2610   c15_8_oo2_2610    
                     c15_8_oo3_2610    c15_8_oo4_2610    c15_8_oo5_2610    c15_8_oo6_2610    c15_8_oo7_2610    
                     c15_8_oo9_2610    c15_8_oo10_2610   c15_8_oo11_2610   c15_8_oo12_2610   c15_8_oo13_2610   
                     c15_8_oo14_2610   c15_9_oo3_2610    c15_9_oo4_2610    c15_9_oo5_2610    c15_9_oo6_2610    
                     c15_9_oo7_2610    c15_9_oo8_2610    c15_9_oo10_2610   c15_9_oo11_2610   c15_9_oo12_2610   
                     c15_9_oo13_2610   c15_9_oo14_2610   c15_10_oo4_2610   c15_10_oo5_2610   c15_10_oo6_2610   
                     c15_10_oo7_2610   c15_10_oo8_2610   c15_10_oo9_2610   c15_10_oo11_2610  c15_10_oo12_2610  
                     c15_10_oo13_2610  c15_10_oo14_2610  c15_11_oo5_2610   c15_11_oo6_2610   c15_11_oo7_2610   
                     c15_11_oo8_2610   c15_11_oo9_2610   c15_11_oo10_2610  c15_11_oo12_2610  c15_11_oo13_2610  
                     c15_11_oo14_2610  c15_12_oo6_2610   c15_12_oo8_2610   c15_12_oo9_2610   c15_12_oo10_2610  
                     c15_12_oo11_2610  c15_12_oo13_2610  c15_12_oo14_2610  c15_13_oo6_2610   c15_13_oo8_2610   
                     c15_13_oo9_2610   c15_13_oo10_2610  c15_13_oo11_2610  c15_13_oo12_2610  c15_13_oo14_2610  
                     c15_14_oo8_2610   c15_14_oo9_2610   c15_14_oo10_2610  c15_14_oo11_2610  c15_14_oo12_2610  
                     c15_14_oo13_2610  c15h30o_11        c15h30o_12        c15h30o_13        c15h30o_14        
                     c15h30o_15        c15h30o_16        c15h30o_23        c15h30o_24        c15h30o_25        
                     c15h30o_26        c15h30o_27        c15h30o_28        c15h30o_34        c15h30o_35        
                     c15h30o_36        c15h30o_37        c15h30o_38        c15h30o_39        c15h30o_45        
                     c15h30o_46        c15h30o_47        c15h30o_48        c15h30o_49        c15h30o_410       
                     c15h30o_56        c15h30o_57        c15h30o_58        c15h30o_59        c15h30o_510       
                     c15h30o_511       c15h30o_67        c15h30o_68        c15h30o_69        c15h30o_610       