THERMO                                                                          
   300.000  1500.000  5000.000                                                  
26_DMH     5/29/14 THERMc   9h  20    0    0G   300.000  5000.000 1389.000    01
 2.62173440E+01 4.91034268E-02-1.67643083E-05 2.59934643E-09-1.50667296E-13    2
-4.43133776E+04-1.18093113E+02-4.04598519E+00 1.09478720E-01-5.88711844E-05    3
 1.40410255E-08-9.62630435E-13-3.27139001E+04 4.81951798E+01                   4
END                                                                             
