THERMO                                                                          
   300.000  1500.000  5000.000                                                  
C15H32    10/ 9/14 THERMC  15H  32    0    0G   300.000  5000.000 1393.000   141
 4.80563000E+01 7.04906133E-02-2.41498334E-05 3.75336207E-09-2.17921352E-13    2
-6.95349946E+04-2.23503014E+02-4.87112235E+00 1.90151987E-01-1.27393620E-04    3
 4.43967665E-08-6.40109909E-12-5.06540542E+04 6.23314537E+01                   4
C15H31_A  10/ 9/14 THERMC  15H  31    0    0G   300.000  5000.000 1393.000   141
 4.76268635E+01 6.83575048E-02-2.34248865E-05 3.64131569E-09-2.11441653E-13    2
-4.44629006E+04-2.17635673E+02-4.08039053E+00 1.85511084E-01-1.24794704E-04    3
 4.36878245E-08-6.32816399E-12-2.60448400E+04 6.15161757E+01                   4
C15H32    10/ 9/14 THERMC  15H  32    0    0G   300.000  5000.000 1393.000   141
 4.80563000E+01 7.04906133E-02-2.41498334E-05 3.75336207E-09-2.17921352E-13    2
-6.95349946E+04-2.23503014E+02-4.87112235E+00 1.90151987E-01-1.27393620E-04    3
 4.43967665E-08-6.40109909E-12-5.06540542E+04 6.23314537E+01                   4
C15H31_B  10/ 9/14 THERMC  15H  31    0    0G   300.000  5000.000 1389.000   141
 4.60743102E+01 6.96898192E-02-2.38869895E-05 3.71366849E-09-2.15662192E-13    2
-4.62600836E+04-2.08614659E+02-7.63450534E-01 1.68017709E-01-9.96139324E-05    3
 2.89585642E-08-3.24883423E-12-2.87661239E+04 4.70645513E+01                   4
C15H32    10/ 9/14 THERMC  15H  32    0    0G   300.000  5000.000 1393.000   141
 4.80563000E+01 7.04906133E-02-2.41498334E-05 3.75336207E-09-2.17921352E-13    2
-6.95349946E+04-2.23503014E+02-4.87112235E+00 1.90151987E-01-1.27393620E-04    3
 4.43967665E-08-6.40109909E-12-5.06540542E+04 6.23314537E+01                   4
C15H31_C  10/ 9/14 THERMC  15H  31    0    0G   300.000  5000.000 1391.000   141
 4.73285928E+01 6.81988044E-02-2.32846332E-05 3.61095957E-09-2.09345405E-13    2
-4.57541412E+04-2.16192238E+02-3.88211320E+00 1.81618762E-01-1.17633045E-04    3
 3.87253244E-08-5.15380118E-12-2.73186441E+04 6.10940315E+01                   4
C15H32    10/ 9/14 THERMC  15H  32    0    0G   300.000  5000.000 1393.000   141
 4.80563000E+01 7.04906133E-02-2.41498334E-05 3.75336207E-09-2.17921352E-13    2
-6.95349946E+04-2.23503014E+02-4.87112235E+00 1.90151987E-01-1.27393620E-04    3
 4.43967665E-08-6.40109909E-12-5.06540542E+04 6.23314537E+01                   4
C15H31_D  10/ 9/14 THERMC  15H  31    0    0G   300.000  5000.000 1391.000   141
 4.73285928E+01 6.81988044E-02-2.32846332E-05 3.61095957E-09-2.09345405E-13    2
-4.57541412E+04-2.16192238E+02-3.88211320E+00 1.81618762E-01-1.17633045E-04    3
 3.87253244E-08-5.15380118E-12-2.73186441E+04 6.10940315E+01                   4
C15H32    10/ 9/14 THERMC  15H  32    0    0G   300.000  5000.000 1393.000   141
 4.80563000E+01 7.04906133E-02-2.41498334E-05 3.75336207E-09-2.17921352E-13    2
-6.95349946E+04-2.23503014E+02-4.87112235E+00 1.90151987E-01-1.27393620E-04    3
 4.43967665E-08-6.40109909E-12-5.06540542E+04 6.23314537E+01                   4
C15H31_E  10/ 9/14 THERMC  15H  31    0    0G   300.000  5000.000 1391.000   141
 4.73285928E+01 6.81988044E-02-2.32846332E-05 3.61095957E-09-2.09345405E-13    2
-4.57541412E+04-2.16192238E+02-3.88211320E+00 1.81618762E-01-1.17633045E-04    3
 3.87253244E-08-5.15380118E-12-2.73186441E+04 6.10940315E+01                   4
C15H32    10/ 9/14 THERMC  15H  32    0    0G   300.000  5000.000 1393.000   141
 4.80563000E+01 7.04906133E-02-2.41498334E-05 3.75336207E-09-2.17921352E-13    2
-6.95349946E+04-2.23503014E+02-4.87112235E+00 1.90151987E-01-1.27393620E-04    3
 4.43967665E-08-6.40109909E-12-5.06540542E+04 6.23314537E+01                   4
C15H31_F  10/ 9/14 THERMC  15H  31    0    0G   300.000  5000.000 1389.000   141
 4.60743102E+01 6.96898192E-02-2.38869895E-05 3.71366849E-09-2.15662192E-13    2
-4.62600836E+04-2.08614659E+02-7.63450534E-01 1.68017709E-01-9.96139324E-05    3
 2.89585642E-08-3.24883423E-12-2.87661239E+04 4.70645513E+01                   4
C15H32    10/ 9/14 THERMC  15H  32    0    0G   300.000  5000.000 1393.000   141
 4.80563000E+01 7.04906133E-02-2.41498334E-05 3.75336207E-09-2.17921352E-13    2
-6.95349946E+04-2.23503014E+02-4.87112235E+00 1.90151987E-01-1.27393620E-04    3
 4.43967665E-08-6.40109909E-12-5.06540542E+04 6.23314537E+01                   4
C15H31_G  10/ 9/14 THERMC  15H  31    0    0G   300.000  5000.000 1393.000   141
 4.76268635E+01 6.83575048E-02-2.34248865E-05 3.64131569E-09-2.11441653E-13    2
-4.44629006E+04-2.17635673E+02-4.08039053E+00 1.85511084E-01-1.24794704E-04    3
 4.36878245E-08-6.32816399E-12-2.60448400E+04 6.15161757E+01                   4
C15H32    10/ 9/14 THERMC  15H  32    0    0G   300.000  5000.000 1393.000   141
 4.80563000E+01 7.04906133E-02-2.41498334E-05 3.75336207E-09-2.17921352E-13    2
-6.95349946E+04-2.23503014E+02-4.87112235E+00 1.90151987E-01-1.27393620E-04    3
 4.43967665E-08-6.40109909E-12-5.06540542E+04 6.23314537E+01                   4
C15H31_H  10/ 9/14 THERMC  15H  31    0    0G   300.000  5000.000 1391.000   141
 4.73285928E+01 6.81988044E-02-2.32846332E-05 3.61095957E-09-2.09345405E-13    2
-4.57541412E+04-2.16192238E+02-3.88211320E+00 1.81618762E-01-1.17633045E-04    3
 3.87253244E-08-5.15380118E-12-2.73186441E+04 6.10940315E+01                   4
C15H32    10/ 9/14 THERMC  15H  32    0    0G   300.000  5000.000 1393.000   141
 4.80563000E+01 7.04906133E-02-2.41498334E-05 3.75336207E-09-2.17921352E-13    2
-6.95349946E+04-2.23503014E+02-4.87112235E+00 1.90151987E-01-1.27393620E-04    3
 4.43967665E-08-6.40109909E-12-5.06540542E+04 6.23314537E+01                   4
C15H31_I  10/ 9/14 THERMC  15H  31    0    0G   300.000  5000.000 1391.000   141
 4.73285928E+01 6.81988044E-02-2.32846332E-05 3.61095957E-09-2.09345405E-13    2
-4.57541412E+04-2.16192238E+02-3.88211320E+00 1.81618762E-01-1.17633045E-04    3
 3.87253244E-08-5.15380118E-12-2.73186441E+04 6.10940315E+01                   4
C15H32    10/ 9/14 THERMC  15H  32    0    0G   300.000  5000.000 1393.000   141
 4.80563000E+01 7.04906133E-02-2.41498334E-05 3.75336207E-09-2.17921352E-13    2
-6.95349946E+04-2.23503014E+02-4.87112235E+00 1.90151987E-01-1.27393620E-04    3
 4.43967665E-08-6.40109909E-12-5.06540542E+04 6.23314537E+01                   4
C15H31_J  10/ 9/14 THERMC  15H  31    0    0G   300.000  5000.000 1391.000   141
 4.73285928E+01 6.81988044E-02-2.32846332E-05 3.61095957E-09-2.09345405E-13    2
-4.57541412E+04-2.16192238E+02-3.88211320E+00 1.81618762E-01-1.17633045E-04    3
 3.87253244E-08-5.15380118E-12-2.73186441E+04 6.10940315E+01                   4
C15H32    10/ 9/14 THERMC  15H  32    0    0G   300.000  5000.000 1393.000   141
 4.80563000E+01 7.04906133E-02-2.41498334E-05 3.75336207E-09-2.17921352E-13    2
-6.95349946E+04-2.23503014E+02-4.87112235E+00 1.90151987E-01-1.27393620E-04    3
 4.43967665E-08-6.40109909E-12-5.06540542E+04 6.23314537E+01                   4
C15H31_K  10/ 9/14 THERMC  15H  31    0    0G   300.000  5000.000 1389.000   141
 4.60743102E+01 6.96898192E-02-2.38869895E-05 3.71366849E-09-2.15662192E-13    2
-4.62600836E+04-2.08614659E+02-7.63450534E-01 1.68017709E-01-9.96139324E-05    3
 2.89585642E-08-3.24883423E-12-2.87661239E+04 4.70645513E+01                   4
C15H32    10/ 9/14 THERMC  15H  32    0    0G   300.000  5000.000 1393.000   141
 4.80563000E+01 7.04906133E-02-2.41498334E-05 3.75336207E-09-2.17921352E-13    2
-6.95349946E+04-2.23503014E+02-4.87112235E+00 1.90151987E-01-1.27393620E-04    3
 4.43967665E-08-6.40109909E-12-5.06540542E+04 6.23314537E+01                   4
C15H31_L  10/ 9/14 THERMC  15H  31    0    0G   300.000  5000.000 1393.000   141
 4.76268635E+01 6.83575048E-02-2.34248865E-05 3.64131569E-09-2.11441653E-13    2
-4.44629006E+04-2.17635673E+02-4.08039053E+00 1.85511084E-01-1.24794704E-04    3
 4.36878245E-08-6.32816399E-12-2.60448400E+04 6.15161757E+01                   4
C15H32    10/ 9/14 THERMC  15H  32    0    0G   300.000  5000.000 1393.000   141
 4.80563000E+01 7.04906133E-02-2.41498334E-05 3.75336207E-09-2.17921352E-13    2
-6.95349946E+04-2.23503014E+02-4.87112235E+00 1.90151987E-01-1.27393620E-04    3
 4.43967665E-08-6.40109909E-12-5.06540542E+04 6.23314537E+01                   4
C15H31_M  10/ 9/14 THERMC  15H  31    0    0G   300.000  5000.000 1391.000   141
 4.73285928E+01 6.81988044E-02-2.32846332E-05 3.61095957E-09-2.09345405E-13    2
-4.57541412E+04-2.16192238E+02-3.88211320E+00 1.81618762E-01-1.17633045E-04    3
 3.87253244E-08-5.15380118E-12-2.73186441E+04 6.10940315E+01                   4
C15H32    10/ 9/14 THERMC  15H  32    0    0G   300.000  5000.000 1393.000   141
 4.80563000E+01 7.04906133E-02-2.41498334E-05 3.75336207E-09-2.17921352E-13    2
-6.95349946E+04-2.23503014E+02-4.87112235E+00 1.90151987E-01-1.27393620E-04    3
 4.43967665E-08-6.40109909E-12-5.06540542E+04 6.23314537E+01                   4
C15H31_N  10/ 9/14 THERMC  15H  31    0    0G   300.000  5000.000 1393.000   141
 4.76268635E+01 6.83575048E-02-2.34248865E-05 3.64131569E-09-2.11441653E-13    2
-4.44629006E+04-2.17635673E+02-4.08039053E+00 1.85511084E-01-1.24794704E-04    3
 4.36878245E-08-6.32816399E-12-2.60448400E+04 6.15161757E+01                   4
C15H30_1  10/ 9/14 THERMC  15H  30    0    0G   300.000  5000.000 1393.000   131
 4.68851272E+01 6.66304742E-02-2.27785505E-05 3.53524227E-09-2.05058138E-13    2
-5.40801385E+04-2.15334056E+02-3.93576788E+00 1.82867871E-01-1.24552026E-04    3
 4.42921186E-08-6.52033669E-12-3.61045749E+04 5.86159877E+01                   4
C15H30_2  10/ 9/14 THERMC  15H  30    0    0G   300.000  5000.000 1392.000   131
 4.64126719E+01 6.70559685E-02-2.29304943E-05 3.55948297E-09-2.06490297E-13    2
-5.54244535E+04-2.13135694E+02-3.43010186E+00 1.79478599E-01-1.19557377E-04    3
 4.13923899E-08-5.92308082E-12-3.76229931E+04 5.61251121E+01                   4
C15H30_3  10/ 9/14 THERMC  15H  30    0    0G   300.000  5000.000 1394.000   131
 4.64769439E+01 6.72408613E-02-2.30451239E-05 3.58250555E-09-2.08033230E-13    2
-5.47200313E+04-2.14060779E+02-5.78730356E+00 1.88319018E-01-1.31108516E-04    3
 4.79585086E-08-7.28798807E-12-3.63678393E+04 6.71563845E+01                   4
C15H30_4  10/ 9/14 THERMC  15H  30    0    0G   300.000  5000.000 1394.000   131
 4.64769439E+01 6.72408613E-02-2.30451239E-05 3.58250555E-09-2.08033230E-13    2
-5.47200313E+04-2.14060779E+02-5.78730356E+00 1.88319018E-01-1.31108516E-04    3
 4.79585086E-08-7.28798807E-12-3.63678393E+04 6.71563845E+01                   4
C15H30_5  10/ 9/14 THERMC  15H  30    0    0G   300.000  5000.000 1393.000   131
 4.65045364E+01 6.70752169E-02-2.29579113E-05 3.56586864E-09-2.06945541E-13    2
-5.54118091E+04-2.13575128E+02-4.29834220E+00 1.83069810E-01-1.24468380E-04    3
 4.42709983E-08-6.53540851E-12-3.74002005E+04 6.03865754E+01                   4
C15H30_6  10/ 9/14 THERMC  15H  30    0    0G   300.000  5000.000 1393.000   131
 4.65045364E+01 6.70752169E-02-2.29579113E-05 3.56586864E-09-2.06945541E-13    2
-5.54118091E+04-2.13575128E+02-4.29834220E+00 1.83069810E-01-1.24468380E-04    3
 4.42709983E-08-6.53540851E-12-3.74002005E+04 6.03865754E+01                   4
C15H30_62 10/ 9/14 THERMC  15H  30    0    0G   300.000  5000.000 1393.000   131
 4.69787387E+01 6.66482649E-02-2.28054686E-05 3.54155039E-09-2.05508876E-13    2
-5.40682357E+04-2.16885911E+02-4.81151108E+00 1.86493666E-01-1.29512751E-04    3
 4.72004057E-08-7.13901734E-12-3.58806988E+04 6.18096841E+01                   4
C15H30_7  10/ 9/14 THERMC  15H  30    0    0G   300.000  5000.000 1394.000   131
 4.64769439E+01 6.72408613E-02-2.30451239E-05 3.58250555E-09-2.08033230E-13    2
-5.47200313E+04-2.14060779E+02-5.78730356E+00 1.88319018E-01-1.31108516E-04    3
 4.79585086E-08-7.28798807E-12-3.63678393E+04 6.71563845E+01                   4
C15H30_8  10/ 9/14 THERMC  15H  30    0    0G   300.000  5000.000 1394.000   131
 4.64769439E+01 6.72408613E-02-2.30451239E-05 3.58250555E-09-2.08033230E-13    2
-5.47200313E+04-2.14060779E+02-5.78730356E+00 1.88319018E-01-1.31108516E-04    3
 4.79585086E-08-7.28798807E-12-3.63678393E+04 6.71563845E+01                   4
C15H30_9  10/ 9/14 THERMC  15H  30    0    0G   300.000  5000.000 1393.000   131
 4.65045364E+01 6.70752169E-02-2.29579113E-05 3.56586864E-09-2.06945541E-13    2
-5.54118091E+04-2.13575128E+02-4.29834220E+00 1.83069810E-01-1.24468380E-04    3
 4.42709983E-08-6.53540851E-12-3.74002005E+04 6.03865754E+01                   4
C15H30_10 10/ 9/14 THERMC  15H  30    0    0G   300.000  5000.000 1392.000   131
 4.64126719E+01 6.70559685E-02-2.29304943E-05 3.55948297E-09-2.06490297E-13    2
-5.54244535E+04-2.13135694E+02-3.43010186E+00 1.79478599E-01-1.19557377E-04    3
 4.13923899E-08-5.92308082E-12-3.76229931E+04 5.61251121E+01                   4
C15H30102 10/ 9/14 THERMC  15H  30    0    0G   300.000  5000.000 1393.000   131
 4.69787387E+01 6.66482649E-02-2.28054686E-05 3.54155039E-09-2.05508876E-13    2
-5.40682357E+04-2.16885911E+02-4.81151108E+00 1.86493666E-01-1.29512751E-04    3
 4.72004057E-08-7.13901734E-12-3.58806988E+04 6.18096841E+01                   4
C15H30_11 10/ 9/14 THERMC  15H  30    0    0G   300.000  5000.000 1394.000   131
 4.68551752E+01 6.67994045E-02-2.28670939E-05 3.55210108E-09-2.06159132E-13    2
-5.33855022E+04-2.16902932E+02-5.33892387E+00 1.87783196E-01-1.30737531E-04    3
 4.77183366E-08-7.21879673E-12-3.50864824E+04 6.38762899E+01                   4
C15H30_1  10/ 9/14 THERMC  15H  30    0    0G   300.000  5000.000 1393.000   131
 4.68851272E+01 6.66304742E-02-2.27785505E-05 3.53524227E-09-2.05058138E-13    2
-5.40801385E+04-2.15334056E+02-3.93576788E+00 1.82867871E-01-1.24552026E-04    3
 4.42921186E-08-6.52033669E-12-3.61045749E+04 5.86159877E+01                   4
C15H29    10/ 9/14 THERMC  15H  29    0    0G   300.000  5000.000 1391.000   131
 4.67690525E+01 6.47953768E-02-2.22805038E-05 3.47148466E-09-2.01909332E-13    2
-3.71892520E+04-2.16207674E+02-3.92406087E+00 1.79668513E-01-1.21768591E-04    3
 4.28571373E-08-6.23909142E-12-1.91281650E+04 5.74741181E+01                   4
C15H32O_1 10/ 9/14 THERMC  15H  32O   1    0G   300.000  5000.000 1394.000   151
 4.97759790E+01 7.08750072E-02-2.42218819E-05 3.75838345E-09-2.17964377E-13    2
-8.80889982E+04-2.28104620E+02-4.47126053E+00 1.95755365E-01-1.34526970E-04    3
 4.84071767E-08-7.21833973E-12-6.89839538E+04 6.40256325E+01                   4
C15H31O_1 10/ 9/14 THERMC  15H  31O   1    0G   300.000  5000.000 1393.000   141
 4.97004985E+01 6.90012992E-02-2.36169104E-05 3.66828508E-09-2.12894388E-13    2
-6.17996686E+04-2.27804078E+02-4.38408993E+00 1.93580907E-01-1.33654228E-04    3
 4.81742979E-08-7.18054783E-12-4.27705893E+04 6.34057003E+01                   4
C15H32O_2 10/ 9/14 THERMC  15H  32O   1    0G   300.000  5000.000 1394.000   151
 5.04222157E+01 7.04249384E-02-2.40872467E-05 3.73941702E-09-2.16939875E-13    2
-9.16416635E+04-2.33122184E+02-4.51264051E+00 1.99188986E-01-1.40853406E-04    3
 5.26168475E-08-8.17765027E-12-7.24984473E+04 6.19385161E+01                   4
C15H31O_2 10/ 9/14 THERMC  15H  31O   1    0G   300.000  5000.000 1394.000   141
 5.03490801E+01 6.85465915E-02-2.34801561E-05 3.64893893E-09-2.11845954E-13    2
-6.53530856E+04-2.32829241E+02-4.42228987E+00 1.96999674E-01-1.39957409E-04    3
 5.23682116E-08-8.13612570E-12-4.62855467E+04 6.13090250E+01                   4
C15H32O_3 10/ 9/14 THERMC  15H  32O   1    0G   300.000  5000.000 1395.000   151
 5.01880709E+01 7.07312449E-02-2.42151093E-05 3.76156477E-09-2.18314217E-13    2
-9.03785775E+04-2.31368413E+02-4.65014156E+00 1.98765595E-01-1.39649704E-04    3
 5.17203126E-08-7.96199915E-12-7.12246485E+04 6.33406696E+01                   4
C15H31O_3 10/ 9/14 THERMC  15H  31O   1    0G   300.000  5000.000 1395.000   141
 5.01169694E+01 6.88498273E-02-2.36067402E-05 3.67087022E-09-2.13207191E-13    2
-6.40910375E+04-2.31087193E+02-4.54919532E+00 1.96526135E-01-1.38675745E-04    3
 5.14221176E-08-7.90941138E-12-4.50132742E+04 6.26627115E+01                   4
C15H32O_4 10/ 9/14 THERMC  15H  32O   1    0G   300.000  5000.000 1395.000   151
 5.01880709E+01 7.07312449E-02-2.42151093E-05 3.76156477E-09-2.18314217E-13    2
-9.03785775E+04-2.31368413E+02-4.65014156E+00 1.98765595E-01-1.39649704E-04    3
 5.17203126E-08-7.96199915E-12-7.12246485E+04 6.33406696E+01                   4
C15H31O_4 10/ 9/14 THERMC  15H  31O   1    0G   300.000  5000.000 1395.000   141
 5.01169694E+01 6.88498273E-02-2.36067402E-05 3.67087022E-09-2.13207191E-13    2
-6.40910375E+04-2.31087193E+02-4.54919532E+00 1.96526135E-01-1.38675745E-04    3
 5.14221176E-08-7.90941138E-12-4.50132742E+04 6.26627115E+01                   4
C15H32O_5 10/ 9/14 THERMC  15H  32O   1    0G   300.000  5000.000 1395.000   151
 5.01880709E+01 7.07312449E-02-2.42151093E-05 3.76156477E-09-2.18314217E-13    2
-9.03785775E+04-2.31368413E+02-4.65014156E+00 1.98765595E-01-1.39649704E-04    3
 5.17203126E-08-7.96199915E-12-7.12246485E+04 6.33406696E+01                   4
C15H31O_5 10/ 9/14 THERMC  15H  31O   1    0G   300.000  5000.000 1395.000   141
 5.01169694E+01 6.88498273E-02-2.36067402E-05 3.67087022E-09-2.13207191E-13    2
-6.40910375E+04-2.31087193E+02-4.54919532E+00 1.96526135E-01-1.38675745E-04    3
 5.14221176E-08-7.90941138E-12-4.50132742E+04 6.26627115E+01                   4
C15H32O_6 10/ 9/14 THERMC  15H  32O   1    0G   300.000  5000.000 1394.000   151
 5.04222157E+01 7.04249384E-02-2.40872467E-05 3.73941702E-09-2.16939875E-13    2
-9.16416635E+04-2.33122184E+02-4.51264051E+00 1.99188986E-01-1.40853406E-04    3
 5.26168475E-08-8.17765027E-12-7.24984473E+04 6.19385161E+01                   4
C15H31O_1 10/ 9/14 THERMC  15H  31O   1    0G   300.000  5000.000 1394.000   141
 5.03490801E+01 6.85465915E-02-2.34801561E-05 3.64893893E-09-2.11845954E-13    2
-6.53530856E+04-2.32829241E+02-4.42228987E+00 1.96999674E-01-1.39957409E-04    3
 5.23682116E-08-8.13612570E-12-4.62855467E+04 6.13090250E+01                   4
C15H32O_7 10/ 9/14 THERMC  15H  32O   1    0G   300.000  5000.000 1394.000   151
 4.97759790E+01 7.08750072E-02-2.42218819E-05 3.75838345E-09-2.17964377E-13    2
-8.80889982E+04-2.28104620E+02-4.47126053E+00 1.95755365E-01-1.34526970E-04    3
 4.84071767E-08-7.21833973E-12-6.89839538E+04 6.40256325E+01                   4
C15H31O_7 10/ 9/14 THERMC  15H  31O   1    0G   300.000  5000.000 1393.000   141
 4.97004985E+01 6.90012992E-02-2.36169104E-05 3.66828508E-09-2.12894388E-13    2
-6.17996686E+04-2.27804078E+02-4.38408993E+00 1.93580907E-01-1.33654228E-04    3
 4.81742979E-08-7.18054783E-12-4.27705893E+04 6.34057003E+01                   4
C15H32O_8 10/ 9/14 THERMC  15H  32O   1    0G   300.000  5000.000 1395.000   151
 5.01880709E+01 7.07312449E-02-2.42151093E-05 3.76156477E-09-2.18314217E-13    2
-9.03785775E+04-2.31368413E+02-4.65014156E+00 1.98765595E-01-1.39649704E-04    3
 5.17203126E-08-7.96199915E-12-7.12246485E+04 6.33406696E+01                   4
C15H31O_8 10/ 9/14 THERMC  15H  31O   1    0G   300.000  5000.000 1395.000   141
 5.01169694E+01 6.88498273E-02-2.36067402E-05 3.67087022E-09-2.13207191E-13    2
-6.40910375E+04-2.31087193E+02-4.54919532E+00 1.96526135E-01-1.38675745E-04    3
 5.14221176E-08-7.90941138E-12-4.50132742E+04 6.26627115E+01                   4
C15H32O_9 10/ 9/14 THERMC  15H  32O   1    0G   300.000  5000.000 1395.000   151
 5.01880709E+01 7.07312449E-02-2.42151093E-05 3.76156477E-09-2.18314217E-13    2
-9.03785775E+04-2.31368413E+02-4.65014156E+00 1.98765595E-01-1.39649704E-04    3
 5.17203126E-08-7.96199915E-12-7.12246485E+04 6.33406696E+01                   4
C15H31O_9 10/ 9/14 THERMC  15H  31O   1    0G   300.000  5000.000 1395.000   141
 5.01169694E+01 6.88498273E-02-2.36067402E-05 3.67087022E-09-2.13207191E-13    2
-6.40910375E+04-2.31087193E+02-4.54919532E+00 1.96526135E-01-1.38675745E-04    3
 5.14221176E-08-7.90941138E-12-4.50132742E+04 6.26627115E+01                   4
C15H32O10 10/ 9/14 THERMC  15H  32O   1    0G   300.000  5000.000 1395.000   151
 5.01880709E+01 7.07312449E-02-2.42151093E-05 3.76156477E-09-2.18314217E-13    2
-9.03785775E+04-2.31368413E+02-4.65014156E+00 1.98765595E-01-1.39649704E-04    3
 5.17203126E-08-7.96199915E-12-7.12246485E+04 6.33406696E+01                   4
C15H31O10 10/ 9/14 THERMC  15H  31O   1    0G   300.000  5000.000 1395.000   141
 5.01169694E+01 6.88498273E-02-2.36067402E-05 3.67087022E-09-2.13207191E-13    2
-6.40910375E+04-2.31087193E+02-4.54919532E+00 1.96526135E-01-1.38675745E-04    3
 5.14221176E-08-7.90941138E-12-4.50132742E+04 6.26627115E+01                   4
C15H32O11 10/ 9/14 THERMC  15H  32O   1    0G   300.000  5000.000 1394.000   151
 5.04222157E+01 7.04249384E-02-2.40872467E-05 3.73941702E-09-2.16939875E-13    2
-9.16416635E+04-2.33122184E+02-4.51264051E+00 1.99188986E-01-1.40853406E-04    3
 5.26168475E-08-8.17765027E-12-7.24984473E+04 6.19385161E+01                   4
C15H31O11 10/ 9/14 THERMC  15H  31O   1    0G   300.000  5000.000 1394.000   141
 5.03490801E+01 6.85465915E-02-2.34801561E-05 3.64893893E-09-2.11845954E-13    2
-6.53530856E+04-2.32829241E+02-4.42228987E+00 1.96999674E-01-1.39957409E-04    3
 5.23682116E-08-8.13612570E-12-4.62855467E+04 6.13090250E+01                   4
C15H32O_1 10/ 9/14 THERMC  15H  32O   1    0G   300.000  5000.000 1394.000   151
 4.97759790E+01 7.08750072E-02-2.42218819E-05 3.75838345E-09-2.17964377E-13    2
-8.80889982E+04-2.28104620E+02-4.47126053E+00 1.95755365E-01-1.34526970E-04    3
 4.84071767E-08-7.21833973E-12-6.89839538E+04 6.40256325E+01                   4
C15H31O_1 10/ 9/14 THERMC  15H  31O   1    0G   300.000  5000.000 1393.000   141
 4.97004985E+01 6.90012992E-02-2.36169104E-05 3.66828508E-09-2.12894388E-13    2
-6.17996686E+04-2.27804078E+02-4.38408993E+00 1.93580907E-01-1.33654228E-04    3
 4.81742979E-08-7.18054783E-12-4.27705893E+04 6.34057003E+01                   4
C15H32O_1 10/ 9/14 THERMC  15H  32O   1    0G   300.000  5000.000 1395.000   151
 5.01880709E+01 7.07312449E-02-2.42151093E-05 3.76156477E-09-2.18314217E-13    2
-9.03785775E+04-2.31368413E+02-4.65014156E+00 1.98765595E-01-1.39649704E-04    3
 5.17203126E-08-7.96199915E-12-7.12246485E+04 6.33406696E+01                   4
C15H31O_1 10/ 9/14 THERMC  15H  31O   1    0G   300.000  5000.000 1395.000   141
 5.01169694E+01 6.88498273E-02-2.36067402E-05 3.67087022E-09-2.13207191E-13    2
-6.40910375E+04-2.31087193E+02-4.54919532E+00 1.96526135E-01-1.38675745E-04    3
 5.14221176E-08-7.90941138E-12-4.50132742E+04 6.26627115E+01                   4
C15H32O_1 10/ 9/14 THERMC  15H  32O   1    0G   300.000  5000.000 1394.000   151
 4.97759790E+01 7.08750072E-02-2.42218819E-05 3.75838345E-09-2.17964377E-13    2
-8.80889982E+04-2.28104620E+02-4.47126053E+00 1.95755365E-01-1.34526970E-04    3
 4.84071767E-08-7.21833973E-12-6.89839538E+04 6.40256325E+01                   4
C15H31O_1 10/ 9/14 THERMC  15H  31O   1    0G   300.000  5000.000 1393.000   141
 4.97004985E+01 6.90012992E-02-2.36169104E-05 3.66828508E-09-2.12894388E-13    2
-6.17996686E+04-2.27804078E+02-4.38408993E+00 1.93580907E-01-1.33654228E-04    3
 4.81742979E-08-7.18054783E-12-4.27705893E+04 6.34057003E+01                   4
ROOH_1    10/ 9/14 THERMC  15H  32O   2    0G   300.000  5000.000 1847.000   161
 4.59598820E+01 8.06410551E-02-2.87963251E-05 4.61657259E-09-2.74244962E-13    2
-7.71366652E+04-2.01151705E+02-3.03811501E+00 1.99963569E-01-1.36856910E-04    3
 4.82742935E-08-6.96230076E-12-6.14748938E+04 5.90730595E+01                   4
ROO_1     10/ 9/14 THERMC  15H  31O   2    0G   300.000  5000.000 1848.000   151
 4.36329146E+01 8.03146943E-02-2.86355526E-05 4.58571133E-09-2.72190418E-13    2
-5.89013999E+04-1.86971253E+02-1.91287505E+00 1.90446041E-01-1.27717880E-04    3
 4.44136062E-08-6.35635921E-12-4.42488817E+04 5.52369772E+01                   4
ROOH_2    10/ 9/14 THERMC  15H  32O   2    0G   300.000  5000.000 1857.000   161
 4.67223060E+01 8.00016439E-02-2.85755605E-05 4.58193142E-09-2.72216268E-13    2
-8.07384771E+04-2.06829409E+02-3.02543025E+00 2.02841284E-01-1.41809129E-04    3
 5.12665819E-08-7.57492561E-12-6.49906975E+04 5.67926379E+01                   4
ROO_2     10/ 9/14 THERMC  15H  31O   2    0G   300.000  5000.000 1858.000   151
 4.44838654E+01 7.95195296E-02-2.83427902E-05 4.53789278E-09-2.69315264E-13    2
-6.25330034E+04-1.93128074E+02-1.95422058E+00 1.93580053E-01-1.33017682E-04    3
 4.75718336E-08-6.99528245E-12-4.77572125E+04 5.32070510E+01                   4
ROOH_3    10/ 9/14 THERMC  15H  32O   2    0G   300.000  5000.000 1859.000   161
 4.65470674E+01 8.02026774E-02-2.86572565E-05 4.59603653E-09-2.73094076E-13    2
-7.95031631E+04-2.05424479E+02-3.69238659E+00 2.04564747E-01-1.43618384E-04    3
 5.21307985E-08-7.72882494E-12-6.36311484E+04 6.06904205E+01                   4
ROO_3     10/ 9/14 THERMC  15H  31O   2    0G   300.000  5000.000 1860.000   151
 4.42849954E+01 7.97742885E-02-2.84506214E-05 4.55688198E-09-2.70510260E-13    2
-6.12922520E+04-1.91603497E+02-2.71738530E+00 1.95682860E-01-1.35331483E-04    3
 4.87243249E-08-7.20797538E-12-4.63819238E+04 5.75598834E+01                   4
ROOH_4    10/ 9/14 THERMC  15H  32O   2    0G   300.000  5000.000 1859.000   161
 4.65470674E+01 8.02026774E-02-2.86572565E-05 4.59603653E-09-2.73094076E-13    2
-7.95031631E+04-2.05424479E+02-3.69238659E+00 2.04564747E-01-1.43618384E-04    3
 5.21307985E-08-7.72882494E-12-6.36311484E+04 6.06904205E+01                   4
ROO_4     10/ 9/14 THERMC  15H  31O   2    0G   300.000  5000.000 1860.000   151
 4.42849954E+01 7.97742885E-02-2.84506214E-05 4.55688198E-09-2.70510260E-13    2
-6.12922520E+04-1.91603497E+02-2.71738530E+00 1.95682860E-01-1.35331483E-04    3
 4.87243249E-08-7.20797538E-12-4.63819238E+04 5.75598834E+01                   4
ROOH_5    10/ 9/14 THERMC  15H  32O   2    0G   300.000  5000.000 1859.000   161
 4.65470674E+01 8.02026774E-02-2.86572565E-05 4.59603653E-09-2.73094076E-13    2
-7.95031631E+04-2.05424479E+02-3.69238659E+00 2.04564747E-01-1.43618384E-04    3
 5.21307985E-08-7.72882494E-12-6.36311484E+04 6.06904205E+01                   4
ROO_5     10/ 9/14 THERMC  15H  31O   2    0G   300.000  5000.000 1860.000   151
 4.42849954E+01 7.97742885E-02-2.84506214E-05 4.55688198E-09-2.70510260E-13    2
-6.12922520E+04-1.91603497E+02-2.71738530E+00 1.95682860E-01-1.35331483E-04    3
 4.87243249E-08-7.20797538E-12-4.63819238E+04 5.75598834E+01                   4
ROOH_6    10/ 9/14 THERMC  15H  32O   2    0G   300.000  5000.000 1857.000   161
 4.67223060E+01 8.00016439E-02-2.85755605E-05 4.58193142E-09-2.72216268E-13    2
-8.07384771E+04-2.06829409E+02-3.02543025E+00 2.02841284E-01-1.41809129E-04    3
 5.12665819E-08-7.57492561E-12-6.49906975E+04 5.67926379E+01                   4
ROO_6     10/ 9/14 THERMC  15H  31O   2    0G   300.000  5000.000 1858.000   151
 4.44838654E+01 7.95195296E-02-2.83427902E-05 4.53789278E-09-2.69315264E-13    2
-6.25330034E+04-1.93128074E+02-1.95422058E+00 1.93580053E-01-1.33017682E-04    3
 4.75718336E-08-6.99528245E-12-4.77572125E+04 5.32070510E+01                   4
ROOH_7    10/ 9/14 THERMC  15H  32O   2    0G   300.000  5000.000 1847.000   161
 4.59598820E+01 8.06410551E-02-2.87963251E-05 4.61657259E-09-2.74244962E-13    2
-7.71366652E+04-2.01151705E+02-3.03811501E+00 1.99963569E-01-1.36856910E-04    3
 4.82742935E-08-6.96230076E-12-6.14748938E+04 5.90730595E+01                   4
ROO_7     10/ 9/14 THERMC  15H  31O   2    0G   300.000  5000.000 1848.000   151
 4.36329146E+01 8.03146943E-02-2.86355526E-05 4.58571133E-09-2.72190418E-13    2
-5.89013999E+04-1.86971253E+02-1.91287505E+00 1.90446041E-01-1.27717880E-04    3
 4.44136062E-08-6.35635921E-12-4.42488817E+04 5.52369772E+01                   4
ROOH_8    10/ 9/14 THERMC  15H  32O   2    0G   300.000  5000.000 1859.000   161
 4.65470674E+01 8.02026774E-02-2.86572565E-05 4.59603653E-09-2.73094076E-13    2
-7.95031631E+04-2.05424479E+02-3.69238659E+00 2.04564747E-01-1.43618384E-04    3
 5.21307985E-08-7.72882494E-12-6.36311484E+04 6.06904205E+01                   4
ROO_8     10/ 9/14 THERMC  15H  31O   2    0G   300.000  5000.000 1860.000   151
 4.42849954E+01 7.97742885E-02-2.84506214E-05 4.55688198E-09-2.70510260E-13    2
-6.12922520E+04-1.91603497E+02-2.71738530E+00 1.95682860E-01-1.35331483E-04    3
 4.87243249E-08-7.20797538E-12-4.63819238E+04 5.75598834E+01                   4
ROOH_9    10/ 9/14 THERMC  15H  32O   2    0G   300.000  5000.000 1859.000   161
 4.65470674E+01 8.02026774E-02-2.86572565E-05 4.59603653E-09-2.73094076E-13    2
-7.95031631E+04-2.05424479E+02-3.69238659E+00 2.04564747E-01-1.43618384E-04    3
 5.21307985E-08-7.72882494E-12-6.36311484E+04 6.06904205E+01                   4
ROO_9     10/ 9/14 THERMC  15H  31O   2    0G   300.000  5000.000 1860.000   151
 4.42849954E+01 7.97742885E-02-2.84506214E-05 4.55688198E-09-2.70510260E-13    2
-6.12922520E+04-1.91603497E+02-2.71738530E+00 1.95682860E-01-1.35331483E-04    3
 4.87243249E-08-7.20797538E-12-4.63819238E+04 5.75598834E+01                   4
ROOH_10   10/ 9/14 THERMC  15H  32O   2    0G   300.000  5000.000 1859.000   161
 4.65470674E+01 8.02026774E-02-2.86572565E-05 4.59603653E-09-2.73094076E-13    2
-7.95031631E+04-2.05424479E+02-3.69238659E+00 2.04564747E-01-1.43618384E-04    3
 5.21307985E-08-7.72882494E-12-6.36311484E+04 6.06904205E+01                   4
ROO_10    10/ 9/14 THERMC  15H  31O   2    0G   300.000  5000.000 1860.000   151
 4.42849954E+01 7.97742885E-02-2.84506214E-05 4.55688198E-09-2.70510260E-13    2
-6.12922520E+04-1.91603497E+02-2.71738530E+00 1.95682860E-01-1.35331483E-04    3
 4.87243249E-08-7.20797538E-12-4.63819238E+04 5.75598834E+01                   4
ROOH_11   10/ 9/14 THERMC  15H  32O   2    0G   300.000  5000.000 1857.000   161
 4.67223060E+01 8.00016439E-02-2.85755605E-05 4.58193142E-09-2.72216268E-13    2
-8.07384771E+04-2.06829409E+02-3.02543025E+00 2.02841284E-01-1.41809129E-04    3
 5.12665819E-08-7.57492561E-12-6.49906975E+04 5.67926379E+01                   4