THERMO                                                                          
   300.000  1500.000  5000.000                                                  
BC4H9COC  10/10/14 THERMC   6H  12O   1    0G   300.000  5000.000 1389.000    51
 1.96966630E+01 2.79014212E-02-9.63833719E-06 1.50630539E-09-8.77941509E-14    2
-4.42405566E+04-7.75656975E+01-1.21542767E+00 7.35487135E-02-4.72028125E-05    3
 1.54459603E-08-2.06889434E-12-3.65956404E+04 3.59857613E+01                   4
BC4H9COC  10/10/14 THERMC   6H  11O   1    0G   300.000  5000.000 1389.000    51
 1.93042441E+01 2.57632209E-02-8.91763768E-06 1.39556075E-09-8.14165056E-14    2
-1.91920122E+04-7.19378401E+01-5.97806205E-01 6.97359153E-02-4.58514584E-05    3
 1.55308307E-08-2.17655762E-12-1.19620813E+04 3.59536581E+01                   4
BC4H9COC  10/10/14 THERMC   6H  12O   1    0G   300.000  5000.000 1389.000    51
 1.96966630E+01 2.79014212E-02-9.63833719E-06 1.50630539E-09-8.77941509E-14    2
-4.42405566E+04-7.75656975E+01-1.21542767E+00 7.35487135E-02-4.72028125E-05    3
 1.54459603E-08-2.06889434E-12-3.65956404E+04 3.59857613E+01                   4
BC4H8COC  10/10/14 THERMC   6H  11O   1    0G   300.000  5000.000 1389.000    51
 1.93042441E+01 2.57632209E-02-8.91763768E-06 1.39556075E-09-8.14165056E-14    2
-1.91920122E+04-7.19378401E+01-5.97806205E-01 6.97359153E-02-4.58514584E-05    3
 1.55308307E-08-2.17655762E-12-1.19620813E+04 3.59536581E+01                   4
C6H13CHO  10/10/14 THERMC   7H  14O   1    0G   300.000  5000.000 1386.000    61
 2.33243280E+01 3.13719313E-02-1.06938097E-05 1.65677421E-09-9.59922105E-14    2
-4.46900423E+04-9.45763708E+01 3.78322643E-01 8.18956011E-02-5.26728386E-05    3
 1.73946496E-08-2.35612020E-12-3.63654919E+04 2.98317934E+01                   4
C6H13CO   10/10/14 THERMC   7H  13O   1    0G   300.000  5000.000 1388.000    61
 2.26826531E+01 2.94243430E-02-1.00323312E-05 1.55444811E-09-9.00668431E-14    2
-2.55232766E+04-8.92879794E+01 6.47150645E-01 7.98013772E-02-5.44215507E-05    3
 1.96077967E-08-2.95820131E-12-1.76950005E+04 2.95576038E+01                   4
C5H11COC  10/10/14 THERMC   7H  14O   1    0G   300.000  5000.000 1386.000    61
 2.27607662E+01 3.22471180E-02-1.10789223E-05 1.72520503E-09-1.00302483E-13    2
-4.83637653E+04-9.22356401E+01 3.92485256E-02 8.16824633E-02-5.18359492E-05    3
 1.70092828E-08-2.32127948E-12-4.00109432E+04 3.12498538E+01                   4
C5H11COC  10/10/14 THERMC   7H  13O   1    0G   300.000  5000.000 1385.000    61
 2.23906284E+01 3.00220570E-02-1.03138097E-05 1.60606857E-09-9.33785957E-14    2
-2.33161885E+04-8.67109542E+01 7.74443533E-01 7.72162501E-02-4.93897043E-05    3
 1.63333532E-08-2.24535250E-12-1.53916530E+04 3.07003739E+01                   4
C4H9COC2  10/10/14 THERMC   7H  14O   1    0G   300.000  5000.000 1389.000    61
 2.27419880E+01 3.24123965E-02-1.11672808E-05 1.74212816E-09-1.01410366E-13    2
-4.83454303E+04-9.20372217E+01-8.00373170E-01 8.52790809E-02-5.69715901E-05    3
 2.01330886E-08-3.00360199E-12-3.98406848E+04 3.53495714E+01                   4
C4H9COC2  10/10/14 THERMC   7H  13O   1    0G   300.000  5000.000 1389.000    61
 2.23110688E+01 3.02951617E-02-1.04510709E-05 1.63178724E-09-9.50438504E-14    2
-2.32770763E+04-8.61763070E+01-1.18892029E-03 8.05971372E-02-5.43136441E-05    3
 1.93994614E-08-2.92830718E-12-1.52326404E+04 3.44909282E+01                   4
C4H9COC2  10/10/14 THERMC   7H  12O   1    0G   300.000  5000.000 1392.000    51
 2.23010788E+01 2.83178791E-02-9.80004000E-06 1.53344490E-09-8.94518464E-14    2
-3.48141007E+04-9.00324184E+01-2.28567775E+00 8.74120929E-02-6.55031348E-05    3
 2.60376536E-08-4.30614673E-12-2.63533377E+04 4.15733269E+01                   4
C5H11COC  10/10/14 THERMC   7H  14O   1    0G   300.000  5000.000 1386.000    61
 2.24859221E+01 3.25844647E-02-1.12169886E-05 1.74891381E-09-1.01767060E-13    2
-4.71258946E+04-8.93007336E+01 8.02632303E-01 7.85292226E-02-4.77737260E-05    3
 1.48596270E-08-1.91133656E-12-3.90029016E+04 2.90269355E+01                   4
C5H10COC  10/10/14 THERMC   7H  13O   1    0G   300.000  5000.000 1368.000    61
 2.25933477E+01 2.88962924E-02-9.73934203E-06 1.49889411E-09-8.64869971E-14    2
-2.36467562E+04-8.66258617E+01 2.03932493E+00 6.84368166E-02-3.46897705E-05    3
 6.41861011E-09 7.35175426E-14-1.56962745E+04 2.67134474E+01                   4
C7H15CHO  10/10/14 THERMC   8H  16O   1    0G   300.000  5000.000 1387.000    71
 2.64545442E+01 3.59288823E-02-1.22646929E-05 1.90185967E-09-1.10257750E-13    2
-4.87742004E+04-1.09954176E+02 1.69458957E-01 9.40384675E-02-6.08769118E-05    3
 2.03124934E-08-2.79037244E-12-3.92571375E+04 3.24819584E+01                   4
C7H14CHO  10/10/14 THERMC   8H  15O   1    0G   300.000  5000.000 1373.000    71
 2.65966036E+01 3.25383930E-02-1.09614312E-05 1.68646757E-09-9.72916246E-14    2
-2.53868458E+04-1.07674795E+02 1.42877063E+00 8.38507985E-02-4.74638132E-05    3
 1.17668357E-08-8.18516423E-13-1.59557151E+04 3.00543196E+01                   4
C6H13COC  10/10/14 THERMC   8H  16O   1    0G   300.000  5000.000 1387.000    71
 2.59175996E+01 3.67531457E-02-1.26267937E-05 1.96619382E-09-1.14310970E-13    2
-5.20553946E+04-1.07760677E+02-1.48647667E-01 9.36957252E-02-5.98081392E-05    3
 1.97579589E-08-2.71377189E-12-4.25021968E+04 3.38103016E+01                   4
C5H11COC2 10/10/14 THERMC   8H  14O   1    0G   300.000  5000.000 1390.000    61
 2.51416983E+01 3.29607769E-02-1.13654529E-05 1.77403848E-09-1.03309170E-13    2
-3.88706049E+04-1.03470510E+02-4.90188872E-01 9.28153576E-02-6.60704214E-05    3
 2.51716692E-08-4.04305620E-12-2.98398864E+04 3.44099107E+01                   4
C6H13COC  10/10/14 THERMC   8H  16O   1    0G   300.000  5000.000 1387.000    71
 2.59175996E+01 3.67531457E-02-1.26267937E-05 1.96619382E-09-1.14310970E-13    2
-5.20553946E+04-1.07760677E+02-1.48647667E-01 9.36957252E-02-5.98081392E-05    3
 1.97579589E-08-2.71377189E-12-4.25021968E+04 3.38103016E+01                   4
C6H12COCA 10/10/14 THERMC   8H  15O   1    0G   300.000  5000.000 1387.000    71
 2.54799342E+01 3.46510281E-02-1.19176877E-05 1.85714397E-09-1.08026552E-13    2
-2.69845946E+04-1.01862997E+02 6.34329314E-01 8.91046224E-02-5.73033484E-05    3
 1.91297536E-08-2.66355611E-12-1.78922012E+04 3.30228422E+01                   4
C6H13COC  10/10/14 THERMC   8H  16O   1    0G   300.000  5000.000 1387.000    71
 2.59175996E+01 3.67531457E-02-1.26267937E-05 1.96619382E-09-1.14310970E-13    2
-5.20553946E+04-1.07760677E+02-1.48647667E-01 9.36957252E-02-5.98081392E-05    3
 1.97579589E-08-2.71377189E-12-4.25021968E+04 3.38103016E+01                   4
C6H12COCB 10/10/14 THERMC   8H  15O   1    0G   300.000  5000.000 1378.000    71
 2.40073939E+01 3.58162850E-02-1.23014663E-05 1.91521150E-09-1.11334981E-13    2
-2.88040533E+04-9.32704014E+01 3.91619132E+00 7.16689220E-02-3.20688782E-05    3
 4.26056155E-09 4.67071590E-13-2.06058121E+04 1.87526306E+01                   4
C6H13COC  10/10/14 THERMC   8H  16O   1    0G   300.000  5000.000 1387.000    71
 2.59175996E+01 3.67531457E-02-1.26267937E-05 1.96619382E-09-1.14310970E-13    2
-5.20553946E+04-1.07760677E+02-1.48647667E-01 9.36957252E-02-5.98081392E-05    3
 1.97579589E-08-2.71377189E-12-4.25021968E+04 3.38103016E+01                   4
C6H12COCC 10/10/14 THERMC   8H  15O   1    0G   300.000  5000.000 1372.000    71
 2.61681940E+01 3.28936623E-02-1.10823685E-05 1.70519891E-09-9.83770382E-14    2
-2.86466655E+04-1.05926944E+02 1.00495412E+00 8.38619089E-02-4.69022623E-05    3
 1.13307549E-08-7.18619813E-13-1.91807486E+04 3.19009057E+01                   4
C6H13COC  10/10/14 THERMC   8H  16O   1    0G   300.000  5000.000 1387.000    71
 2.59175996E+01 3.67531457E-02-1.26267937E-05 1.96619382E-09-1.14310970E-13    2
-5.20553946E+04-1.07760677E+02-1.48647667E-01 9.36957252E-02-5.98081392E-05    3
 1.97579589E-08-2.71377189E-12-4.25021968E+04 3.38103016E+01                   4
C6H12COCD 10/10/14 THERMC   8H  15O   1    0G   300.000  5000.000 1372.000    71
 2.61681940E+01 3.28936623E-02-1.10823685E-05 1.70519891E-09-9.83770382E-14    2
-2.86466655E+04-1.05926944E+02 1.00495412E+00 8.38619089E-02-4.69022623E-05    3
 1.13307549E-08-7.18619813E-13-1.91807486E+04 3.19009057E+01                   4
C6H13COC  10/10/14 THERMC   8H  16O   1    0G   300.000  5000.000 1387.000    71
 2.59175996E+01 3.67531457E-02-1.26267937E-05 1.96619382E-09-1.14310970E-13    2
-5.20553946E+04-1.07760677E+02-1.48647667E-01 9.36957252E-02-5.98081392E-05    3
 1.97579589E-08-2.71377189E-12-4.25021968E+04 3.38103016E+01                   4
C6H12COCE 10/10/14 THERMC   8H  15O   1    0G   300.000  5000.000 1372.000    71
 2.61681940E+01 3.28936623E-02-1.10823685E-05 1.70519891E-09-9.83770382E-14    2
-2.86466655E+04-1.05926944E+02 1.00495412E+00 8.38619089E-02-4.69022623E-05    3
 1.13307549E-08-7.18619813E-13-1.91807486E+04 3.19009057E+01                   4
C6H13COC  10/10/14 THERMC   8H  16O   1    0G   300.000  5000.000 1387.000    71
 2.59175996E+01 3.67531457E-02-1.26267937E-05 1.96619382E-09-1.14310970E-13    2
-5.20553946E+04-1.07760677E+02-1.48647667E-01 9.36957252E-02-5.98081392E-05    3
 1.97579589E-08-2.71377189E-12-4.25021968E+04 3.38103016E+01                   4
C6H13COC  10/10/14 THERMC   8H  15O   1    0G   300.000  5000.000 1387.000    71
 2.54799342E+01 3.46510281E-02-1.19176877E-05 1.85714397E-09-1.08026552E-13    2
-2.69845946E+04-1.01862997E+02 6.34329314E-01 8.91046224E-02-5.73033484E-05    3
 1.91297536E-08-2.66355611E-12-1.78922012E+04 3.30228422E+01                   4
C8H17CHO  10/10/14 THERMC   9H  18O   1    0G   300.000  5000.000 1393.000    81
 2.97230317E+01 4.07359415E-02-1.39999929E-05 2.18050135E-09-1.26788875E-13    2
-5.35847979E+04-1.27853572E+02-1.82026482E+00 1.11586868E-01-7.43990195E-05    3
 2.55198790E-08-3.58945320E-12-4.23036198E+04 4.26308034E+01                   4
C8H17CHO3 10/10/14 THERMC   9H  18O   1    0G   300.000  5000.000 1388.000    81
 2.95965294E+01 4.04686839E-02-1.38283853E-05 2.14571322E-09-1.24447838E-13    2
-5.28633467E+04-1.25398847E+02-3.16583399E-02 1.06141687E-01-6.90097373E-05    3
 2.31790169E-08-3.21219507E-12-4.21498644E+04 3.50970706E+01                   4
C8H16CHO3 10/10/14 THERMC   9H  17O   1    0G   300.000  5000.000 1375.000    81
 2.98493845E+01 3.66475630E-02-1.23078550E-05 1.88968318E-09-1.08856565E-13    2
-2.94648988E+04-1.23597909E+02 1.19508606E+00 9.60684281E-02-5.58335168E-05    3
 1.46490986E-08-1.20775816E-12-1.88417710E+04 3.28312004E+01                   4
C8H17CHO  10/10/14 THERMC   9H  18O   1    0G   300.000  5000.000 1393.000    81
 2.97230317E+01 4.07359415E-02-1.39999929E-05 2.18050135E-09-1.26788875E-13    2
-5.35847979E+04-1.27853572E+02-1.82026482E+00 1.11586868E-01-7.43990195E-05    3
 2.55198790E-08-3.58945320E-12-4.23036198E+04 4.26308034E+01                   4
C8H16CHO  10/10/14 THERMC   9H  17O   1    0G   300.000  5000.000 1393.000    81
 2.92925014E+01 3.86163485E-02-1.32824829E-05 2.06990397E-09-1.20405176E-13    2
-2.85160713E+04-1.21993864E+02-1.03150863E+00 1.06949005E-01-7.18035795E-05    3
 2.48218880E-08-3.52133687E-12-1.76939404E+04 4.18209099E+01                   4
C8H15CHO  10/10/14 THERMC   9H  16O   1    0G   300.000  5000.000 1395.000    71
 3.00201370E+01 3.55961951E-02-1.21809583E-05 1.89189625E-09-1.09799577E-13    2
-4.09677262E+04-1.29684620E+02-2.36465132E+00 1.15358755E-01-8.87818185E-05    3
 3.59130575E-08-5.96514437E-12-3.01076976E+04 4.28248740E+01                   4
C8H15CHO  10/10/14 THERMC   9H  16O   1    0G   300.000  5000.000 1395.000    71
 3.00201370E+01 3.55961951E-02-1.21809583E-05 1.89189625E-09-1.09799577E-13    2
-4.09677262E+04-1.29684620E+02-2.36465132E+00 1.15358755E-01-8.87818185E-05    3
 3.59130575E-08-5.96514437E-12-3.01076976E+04 4.28248740E+01                   4
C8H15CO   10/10/14 THERMC   9H  15O   1    0G   300.000  5000.000 1396.000    71
 2.93929845E+01 3.36226760E-02-1.15080232E-05 1.78755794E-09-1.03749130E-13    2
-2.18064927E+04-1.24476560E+02-2.07795413E+00 1.13177115E-01-9.03894897E-05    3
 3.80303173E-08-6.54461245E-12-1.14397159E+04 4.24694696E+01                   4
C8H17CHO  10/10/14 THERMC   9H  18O   1    0G   300.000  5000.000 1393.000    81
 2.97230317E+01 4.07359415E-02-1.39999929E-05 2.18050135E-09-1.26788875E-13    2
-5.35847979E+04-1.27853572E+02-1.82026482E+00 1.11586868E-01-7.43990195E-05    3
 2.55198790E-08-3.58945320E-12-4.23036198E+04 4.26308034E+01                   4
C8H17CO   10/10/14 THERMC   9H  17O   1    0G   300.000  5000.000 1393.000    81
 2.91457171E+01 3.86610712E-02-1.32799362E-05 2.06761148E-09-1.20194284E-13    2
-3.44400222E+04-1.22917436E+02-1.68019543E+00 1.10036905E-01-7.69396497E-05    3
 2.81913709E-08-4.28613384E-12-2.36127943E+04 4.29592928E+01                   4
C6H13COC2 10/10/14 THERMC   9H  16O   1    0G   300.000  5000.000 1390.000    71
 2.83122499E+01 3.74491404E-02-1.29060077E-05 2.01376620E-09-1.17239678E-13    2
-4.29693164E+04-1.19071577E+02-6.81007003E-01 1.04856459E-01-7.40781585E-05    3
 2.79355804E-08-4.43762356E-12-3.27338383E+04 3.69801558E+01                   4
C6H13COC2 10/10/14 THERMC   9H  18O   1    0G   300.000  5000.000 1385.000    81
 2.93836621E+01 4.05377774E-02-1.38305582E-05 2.14403006E-09-1.24275147E-13    2
-5.67160136E+04-1.24576089E+02-2.16843971E-01 1.07176671E-01-7.15639897E-05    3
 2.52524703E-08-3.75020052E-12-4.60675767E+04 3.54869317E+01                   4
C6H13COC2 10/10/14 THERMC   9H  17O   1    0G   300.000  5000.000 1376.000    81
 2.93608561E+01 3.71855694E-02-1.25185795E-05 1.92503239E-09-1.11009255E-13    2
-3.32210847E+04-1.21249784E+02 1.20400205E+00 9.63618548E-02-5.75690522E-05    3
 1.64376706E-08-1.72372371E-12-2.27910755E+04 3.23023284E+01                   4
C5H11COC3 10/10/14 THERMC   9H  18O   1    0G   300.000  5000.000 1385.000    81
 2.93836621E+01 4.05377774E-02-1.38305582E-05 2.14403006E-09-1.24275147E-13    2
-5.67160136E+04-1.24576089E+02-2.16843971E-01 1.07176671E-01-7.15639897E-05    3
 2.52524703E-08-3.75020052E-12-4.60675767E+04 3.54869317E+01                   4
C5H11COC3 10/10/14 THERMC   9H  17O   1    0G   300.000  5000.000 1376.000    81
 2.93608561E+01 3.71855694E-02-1.25185795E-05 1.92503239E-09-1.11009255E-13    2
-3.32210847E+04-1.21249784E+02 1.20400205E+00 9.63618548E-02-5.75690522E-05    3
 1.64376706E-08-1.72372371E-12-2.27910755E+04 3.23023284E+01                   4
C4H9COC4  10/10/14 THERMC   9H  18O   1    0G   300.000  5000.000 1390.000    81
 2.90781216E+01 4.14053074E-02-1.42565498E-05 2.22311995E-09-1.29371291E-13    2
-5.65426069E+04-1.23215498E+02-1.16607776E+00 1.09301012E-01-7.29066280E-05    3
 2.56212285E-08-3.78617343E-12-4.56312951E+04 4.04140214E+01                   4
C4H9COC4  10/10/14 THERMC   9H  17O   1    0G   300.000  5000.000 1377.000    81
 2.96495999E+01 3.69255336E-02-1.24270911E-05 1.91068296E-09-1.10174647E-13    2
-3.32238255E+04-1.23107054E+02-4.43946269E-01 1.01307738E-01-6.24815950E-05    3
 1.84492569E-08-2.01063370E-12-2.22434692E+04 4.05138216E+01                   4
C4H9COC4  10/10/14 THERMC   9H  18O   1    0G   300.000  5000.000 1385.000    81
 2.97229515E+01 4.01102719E-02-1.36555408E-05 2.11409399E-09-1.22433915E-13    2
-5.75828768E+04-1.28581634E+02-9.91611975E-01 1.10291053E-01-7.54555237E-05    3
 2.72411825E-08-4.11641317E-12-4.66690906E+04 3.70855332E+01                   4
C4H9COC4  10/10/14 THERMC   9H  17O   1    0G   300.000  5000.000 1385.000    81
 2.93179915E+01 3.79480635E-02-1.29193271E-05 2.00020717E-09-1.15845143E-13    2
-3.25234910E+04-1.22169503E+02-2.11529649E-01 1.05681752E-01-7.28786723E-05    3
 2.65362025E-08-4.04342351E-12-2.20579188E+04 3.70119367E+01                   4
C7H15COC  10/10/14 THERMC   9H  18O   1    0G   300.000  5000.000 1388.000    81
 2.90787298E+01 4.12555176E-02-1.41734339E-05 2.20699596E-09-1.28308891E-13    2
-5.61514243E+04-1.23310467E+02-3.34306903E-01 1.05705087E-01-6.77730893E-05    3
 2.25012962E-08-3.10500778E-12-4.53966151E+04 3.63588898E+01                   4
C5H11COC3 10/10/14 THERMC   9H  18O   1    0G   300.000  5000.000 1390.000    81
 2.93252507E+01 4.11233866E-02-1.41441431E-05 2.20405747E-09-1.28201942E-13    2
-5.73730613E+04-1.26010038E+02-2.01740831E+00 1.12790589E-01-7.74410397E-05    3
 2.80650926E-08-4.26216892E-12-4.62218259E+04 4.30562651E+01                   4
C5H11COC3 10/10/14 THERMC   9H  17O   1    0G   300.000  5000.000 1390.000    81
 2.88933584E+01 3.90068415E-02-1.34280923E-05 2.09372944E-09-1.21835582E-13    2
-3.23040496E+04-1.20143208E+02-1.22815161E+00 1.08152731E-01-7.48490951E-05    3
 2.73718411E-08-4.19559781E-12-2.16122737E+04 4.22436348E+01                   4
C7H15COC  10/10/14 THERMC   9H  18O   1    0G   300.000  5000.000 1388.000    81
 2.90787298E+01 4.12555176E-02-1.41734339E-05 2.20699596E-09-1.28308891E-13    2
-5.61514243E+04-1.23310467E+02-3.34306903E-01 1.05705087E-01-6.77730893E-05    3
 2.25012962E-08-3.10500778E-12-4.53966151E+04 3.63588898E+01                   4
C7H14COCA 10/10/14 THERMC   9H  17O   1    0G   300.000  5000.000 1387.000    81
 2.86416806E+01 3.91512798E-02-1.34632659E-05 2.09774764E-09-1.22011648E-13    2
-3.10808648E+04-1.17416110E+02 4.49928698E-01 1.01103006E-01-6.52477051E-05    3
 2.18580306E-08-3.05106868E-12-2.07866607E+04 3.55667429E+01                   4
C7H15COC  10/10/14 THERMC   9H  18O   1    0G   300.000  5000.000 1388.000    81
 2.90787298E+01 4.12555176E-02-1.41734339E-05 2.20699596E-09-1.28308891E-13    2
-5.61514243E+04-1.23310467E+02-3.34306903E-01 1.05705087E-01-6.77730893E-05    3
 2.25012962E-08-3.10500778E-12-4.53966151E+04 3.63588898E+01                   4
C7H14COCB 10/10/14 THERMC   9H  17O   1    0G   300.000  5000.000 1374.000    81
 2.95036072E+01 3.70548787E-02-1.24729691E-05 1.91798102E-09-1.10605288E-13    2
-3.27931907E+04-1.22413037E+02 7.20132973E-01 9.62708937E-02-5.53431751E-05    3
 1.42313621E-08-1.11665126E-12-2.20594663E+04 3.49151100E+01                   4
C7H15COC  10/10/14 THERMC   9H  18O   1    0G   300.000  5000.000 1388.000    81
 2.90787298E+01 4.12555176E-02-1.41734339E-05 2.20699596E-09-1.28308891E-13    2
-5.61514243E+04-1.23310467E+02-3.34306903E-01 1.05705087E-01-6.77730893E-05    3
 2.25012962E-08-3.10500778E-12-4.53966151E+04 3.63588898E+01                   4
C7H14COCC 10/10/14 THERMC   9H  17O   1    0G   300.000  5000.000 1380.000    81
 2.71656591E+01 4.03286329E-02-1.38530897E-05 2.15694223E-09-1.25392764E-13    2
-3.28991067E+04-1.08805174E+02 3.72282590E+00 8.37324472E-02-4.01288002E-05    3
 7.07106332E-09 5.95371560E-14-2.34996262E+04 2.13326367E+01                   4
C7H15COC  10/10/14 THERMC   9H  18O   1    0G   300.000  5000.000 1388.000    81
 2.90787298E+01 4.12555176E-02-1.41734339E-05 2.20699596E-09-1.28308891E-13    2
-5.61514243E+04-1.23310467E+02-3.34306903E-01 1.05705087E-01-6.77730893E-05    3
 2.25012962E-08-3.10500778E-12-4.53966151E+04 3.63588898E+01                   4
C7H14COCD 10/10/14 THERMC   9H  17O   1    0G   300.000  5000.000 1387.000    81
 2.86416806E+01 3.91512798E-02-1.34632659E-05 2.09774764E-09-1.22011648E-13    2
-3.10808648E+04-1.17416110E+02 4.49928698E-01 1.01103006E-01-6.52477051E-05    3
 2.18580306E-08-3.05106868E-12-2.07866607E+04 3.55667429E+01                   4
C7H15COC  10/10/14 THERMC   9H  18O   1    0G   300.000  5000.000 1388.000    81
 2.90787298E+01 4.12555176E-02-1.41734339E-05 2.20699596E-09-1.28308891E-13    2
-5.61514243E+04-1.23310467E+02-3.34306903E-01 1.05705087E-01-6.77730893E-05    3
 2.25012962E-08-3.10500778E-12-4.53966151E+04 3.63588898E+01                   4
C7H14COCE 10/10/14 THERMC   9H  17O   1    0G   300.000  5000.000 1374.000    81
 2.95036072E+01 3.70548787E-02-1.24729691E-05 1.91798102E-09-1.10605288E-13    2
-3.27931907E+04-1.22413037E+02 7.20132973E-01 9.62708937E-02-5.53431751E-05    3
 1.42313621E-08-1.11665126E-12-2.20594663E+04 3.49151100E+01                   4
C7H15COC  10/10/14 THERMC   9H  18O   1    0G   300.000  5000.000 1388.000    81
 2.90787298E+01 4.12555176E-02-1.41734339E-05 2.20699596E-09-1.28308891E-13    2
-5.61514243E+04-1.23310467E+02-3.34306903E-01 1.05705087E-01-6.77730893E-05    3
 2.25012962E-08-3.10500778E-12-4.53966151E+04 3.63588898E+01                   4
C7H14COCF 10/10/14 THERMC   9H  17O   1    0G   300.000  5000.000 1374.000    81
 2.95036072E+01 3.70548787E-02-1.24729691E-05 1.91798102E-09-1.10605288E-13    2
-3.27931907E+04-1.22413037E+02 7.20132973E-01 9.62708937E-02-5.53431751E-05    3
 1.42313621E-08-1.11665126E-12-2.20594663E+04 3.49151100E+01                   4
C7H15COC  10/10/14 THERMC   9H  18O   1    0G   300.000  5000.000 1388.000    81
 2.90787298E+01 4.12555176E-02-1.41734339E-05 2.20699596E-09-1.28308891E-13    2
-5.61514243E+04-1.23310467E+02-3.34306903E-01 1.05705087E-01-6.77730893E-05    3
 2.25012962E-08-3.10500778E-12-4.53966151E+04 3.63588898E+01                   4
C7H14COCG 10/10/14 THERMC   9H  17O   1    0G   300.000  5000.000 1374.000    81
 2.95036072E+01 3.70548787E-02-1.24729691E-05 1.91798102E-09-1.10605288E-13    2
-3.27931907E+04-1.22413037E+02 7.20132973E-01 9.62708937E-02-5.53431751E-05    3
 1.42313621E-08-1.11665126E-12-2.20594663E+04 3.49151100E+01                   4
C7H15COC  10/10/14 THERMC   9H  18O   1    0G   300.000  5000.000 1388.000    81
 2.90787298E+01 4.12555176E-02-1.41734339E-05 2.20699596E-09-1.28308891E-13    2
-5.61514243E+04-1.23310467E+02-3.34306903E-01 1.05705087E-01-6.77730893E-05    3
 2.25012962E-08-3.10500778E-12-4.53966151E+04 3.63588898E+01                   4
C7H15COC  10/10/14 THERMC   9H  17O   1    0G   300.000  5000.000 1387.000    81
 2.86416806E+01 3.91512798E-02-1.34632659E-05 2.09774764E-09-1.22011648E-13    2
-3.10808648E+04-1.17416110E+02 4.49928698E-01 1.01103006E-01-6.52477051E-05    3
 2.18580306E-08-3.05106868E-12-2.07866607E+04 3.55667429E+01                   4
C9H19CHO  10/10/14 THERMC  10H  20O   1    0G   300.000  5000.000 1393.000    91
 3.28925712E+01 4.52298295E-02-1.55434710E-05 2.42079012E-09-1.40756250E-13    2
-5.76837401E+04-1.43450493E+02-2.00138336E+00 1.23591688E-01-8.23572033E-05    3
 2.82573830E-08-3.97911954E-12-4.51992390E+04 4.51546223E+01                   4
C9H19CHO  10/10/14 THERMC  10H  20O   1    0G   300.000  5000.000 1389.000    91
 3.30323669E+01 4.46525374E-02-1.52477195E-05 2.36493911E-09-1.37123922E-13    2
-5.78011535E+04-1.43899234E+02-1.02782558E+00 1.21466505E-01-8.12324218E-05    3
 2.81837655E-08-4.03760877E-12-4.56413493E+04 4.00964577E+01                   4
C9H19CHO  10/10/14 THERMC  10H  20O   1    0G   300.000  5000.000 1393.000    91
 3.28925712E+01 4.52298295E-02-1.55434710E-05 2.42079012E-09-1.40756250E-13    2
-5.76837401E+04-1.43450493E+02-2.00138336E+00 1.23591688E-01-8.23572033E-05    3
 2.82573830E-08-3.97911954E-12-4.51992390E+04 4.51546223E+01                   4
C9H18CHO  10/10/14 THERMC  10H  19O   1    0G   300.000  5000.000 1393.000    91
 3.24620610E+01 4.31102176E-02-1.48259537E-05 2.31019152E-09-1.34372476E-13    2
-3.26149952E+04-1.37590839E+02-1.21211893E+00 1.18952027E-01-7.97593654E-05    3
 2.75580032E-08-3.91071030E-12-2.05896497E+04 4.43422744E+01                   4
C9H19CHO  10/10/14 THERMC  10H  20O   1    0G   300.000  5000.000 1393.000    91
 3.28925712E+01 4.52298295E-02-1.55434710E-05 2.42079012E-09-1.40756250E-13    2
-5.76837401E+04-1.43450493E+02-2.00138336E+00 1.23591688E-01-8.23572033E-05    3
 2.82573830E-08-3.97911954E-12-4.51992390E+04 4.51546223E+01                   4
C9H18CHO  10/10/14 THERMC  10H  19O   1    0G   300.000  5000.000 1393.000    91
 3.24620610E+01 4.31102176E-02-1.48259537E-05 2.31019152E-09-1.34372476E-13    2
-3.26149952E+04-1.37590839E+02-1.21211893E+00 1.18952027E-01-7.97593654E-05    3
 2.75580032E-08-3.91071030E-12-2.05896497E+04 4.43422744E+01                   4
C9H19CHO  10/10/14 THERMC  10H  20O   1    0G   300.000  5000.000 1393.000    91
 3.28925712E+01 4.52298295E-02-1.55434710E-05 2.42079012E-09-1.40756250E-13    2
-5.76837401E+04-1.43450493E+02-2.00138336E+00 1.23591688E-01-8.23572033E-05    3
 2.82573830E-08-3.97911954E-12-4.51992390E+04 4.51546223E+01                   4
C9H19CO   10/10/14 THERMC  10H  19O   1    0G   300.000  5000.000 1393.000    91
 3.23130474E+01 4.31545012E-02-1.48227631E-05 2.30774910E-09-1.34150913E-13    2
-3.85383999E+04-1.38501923E+02-1.85860483E+00 1.22014388E-01-8.48517121E-05    3
 3.08983458E-08-4.66877168E-12-2.65083567E+04 4.54740326E+01                   4
C9H19CHO  10/10/14 THERMC  10H  20O   1    0G   300.000  5000.000 1389.000    91
 3.30323669E+01 4.46525374E-02-1.52477195E-05 2.36493911E-09-1.37123922E-13    2
-5.78011535E+04-1.43899234E+02-1.02782558E+00 1.21466505E-01-8.12324218E-05    3
 2.81837655E-08-4.03760877E-12-4.56413493E+04 4.00964577E+01                   4
C9H19CO   10/10/14 THERMC  10H  19O   1    0G   300.000  5000.000 1390.000    91
 3.24010722E+01 4.26884554E-02-1.45791265E-05 2.26137488E-09-1.31121930E-13    2
-3.86384488E+04-1.38669007E+02-7.55812076E-01 1.19354347E-01-8.29452257E-05    3
 3.03681786E-08-4.63225529E-12-2.69712745E+04 3.98081087E+01                   4
C6H13COC3 10/10/14 THERMC  10H  20O   1    0G   300.000  5000.000 1391.000    91
 3.24925798E+01 4.56214300E-02-1.56895349E-05 2.44469314E-09-1.42191407E-13    2
-6.14715197E+04-1.41595352E+02-2.19927817E+00 1.24797672E-01-8.54040947E-05    3
 3.08075640E-08-4.65333939E-12-4.91172878E+04 4.55838657E+01                   4
C6H13COC3 10/10/14 THERMC  10H  19O   1    0G   300.000  5000.000 1390.000    91
 3.20610466E+01 4.35041623E-02-1.49731462E-05 2.33430343E-09-1.35821103E-13    2
-3.64025922E+04-1.35730419E+02-1.41006880E+00 1.20159808E-01-8.28115749E-05    3
 3.01134818E-08-4.58649151E-12-2.45077247E+04 4.47714883E+01                   4
C8H17COC  10/10/14 THERMC  10H  20O   1    0G   300.000  5000.000 1391.000    91
 3.26050746E+01 4.55783469E-02-1.56870988E-05 2.44567297E-09-1.42305596E-13    2
-6.14433473E+04-1.42610190E+02-2.48024853E+00 1.23772155E-01-8.17272105E-05    3
 2.77052788E-08-3.85172458E-12-4.88183924E+04 4.72622887E+01                   4
C8H17COC  10/10/14 THERMC  10H  19O   1    0G   300.000  5000.000 1391.000    91
 3.21742398E+01 4.34588920E-02-1.49696144E-05 2.33507763E-09-1.35921945E-13    2
-3.63742761E+04-1.36748216E+02-1.68730194E+00 1.19118068E-01-7.91093498E-05    3
 2.69938797E-08-3.78069271E-12-2.42094142E+04 4.64324734E+01                   4
C5H11COC4 10/10/14 THERMC  10H  20O   1    0G   300.000  5000.000 1386.000    91
 3.28151003E+01 4.47292207E-02-1.52532995E-05 2.36386491E-09-1.36989651E-13    2
-6.16523430E+04-1.43052330E+02-1.21573400E+00 1.22515781E-01-8.38134796E-05    3
 3.02778382E-08-4.58088883E-12-4.95586864E+04 4.04985911E+01                   4
C5H11COC4 10/10/14 THERMC  10H  19O   1    0G   300.000  5000.000 1386.000    91
 3.23979365E+01 4.25864342E-02-1.45254328E-05 2.25142570E-09-1.30490213E-13    2
-3.65881207E+04-1.37266210E+02-4.37636824E-01 1.17920025E-01-8.12671891E-05    3
 2.95991704E-08-4.51494644E-12-2.49473034E+04 3.97388923E+01                   4
C5H11COC4 10/10/14 THERMC  10H  20O   1    0G   300.000  5000.000 1391.000    91
 3.24925798E+01 4.56214300E-02-1.56895349E-05 2.44469314E-09-1.42191407E-13    2
-6.14715197E+04-1.41595352E+02-2.19927817E+00 1.24797672E-01-8.54040947E-05    3
 3.08075640E-08-4.65333939E-12-4.91172878E+04 4.55838657E+01                   4
C5H11COC4 10/10/14 THERMC  10H  19O   1    0G   300.000  5000.000 1390.000    91
 3.20610466E+01 4.35041623E-02-1.49731462E-05 2.33430343E-09-1.35821103E-13    2
-3.64025922E+04-1.35730419E+02-1.41006880E+00 1.20159808E-01-8.28115749E-05    3
 3.01134818E-08-4.58649151E-12-2.45077247E+04 4.47714883E+01                   4
C8H17COC  10/10/14 THERMC  10H  20O   1    0G   300.000  5000.000 1388.000    91
 3.22885020E+01 4.56579253E-02-1.56732991E-05 2.43927040E-09-1.41762324E-13    2
-6.02609775E+04-1.39121099E+02-5.56817590E-01 1.17825694E-01-7.58249078E-05    3
 2.52365879E-08-3.48255248E-12-4.82842137E+04 3.90881800E+01                   4
C8H16COC  10/10/14 THERMC  10H  19O   1    0G   300.000  5000.000 1388.000    91
 3.18059152E+01 4.36496001E-02-1.50082304E-05 2.33826200E-09-1.35991835E-13    2
-3.51780644E+04-1.32983378E+02 2.66245154E-01 1.13104148E-01-7.31970332E-05    3
 2.45895217E-08-3.43933129E-12-2.36814187E+04 3.81059294E+01                   4
C10H21CHO 10/10/14 THERMC  11H  22O   1    0G   300.000  5000.000 1389.000   101
 3.61803052E+01 4.91824911E-02-1.68070904E-05 2.60803221E-09-1.51266575E-13    2
-6.18924858E+04-1.59376947E+02-1.22558404E+00 1.33552260E-01-8.93330680E-05    3
 3.10259231E-08-4.45328083E-12-4.85345405E+04 4.26964122E+01                   4
C10H21CHO 10/10/14 THERMC  11H  22O   1    0G   300.000  5000.000 1389.000   101
 3.61803052E+01 4.91824911E-02-1.68070904E-05 2.60803221E-09-1.51266575E-13    2
-6.18924858E+04-1.59376947E+02-1.22558404E+00 1.33552260E-01-8.93330680E-05    3
 3.10259231E-08-4.45328083E-12-4.85345405E+04 4.26964122E+01                   4
C10H21CHO 10/10/14 THERMC  11H  22O   1    0G   300.000  5000.000 1393.000   101
 3.60846244E+01 4.96807928E-02-1.70670936E-05 2.65747107E-09-1.54493519E-13    2
-6.17898087E+04-1.59171665E+02-2.28518609E+00 1.36023561E-01-9.09111601E-05    3
 3.13333898E-08-4.43749669E-12-4.80785969E+04 4.81597941E+01                   4
C10H20CHO 10/10/14 THERMC  11H  21O   1    0G   300.000  5000.000 1393.000   101
 3.56316467E+01 4.76040151E-02-1.63693896E-05 2.55047261E-09-1.48339361E-13    2
-3.67139612E+04-1.53188036E+02-1.39350992E+00 1.30957796E-01-8.77187157E-05    3
 3.02961036E-08-4.30048671E-12-2.34852207E+04 4.68674096E+01                   4
C10H21CHO 10/10/14 THERMC  11H  22O   1    0G   300.000  5000.000 1389.000   101
 3.61803052E+01 4.91824911E-02-1.68070904E-05 2.60803221E-09-1.51266575E-13    2
-6.18924858E+04-1.59376947E+02-1.22558404E+00 1.33552260E-01-8.93330680E-05    3
 3.10259231E-08-4.45328083E-12-4.85345405E+04 4.26964122E+01                   4