THERMO                                                                          
   300.000  1500.000  5000.000                                                  
c3h6       5/29/14 THERMC   3H   6    0    0G   300.000  5000.000 1392.000    01
 7.80298461E+00 1.42210218E-02-4.82208570E-06 7.44144855E-10-4.29878642E-14    2
-6.35114220E+04-1.92865441E+01-2.66178276E-01 3.09732472E-02-1.75662047E-05    3
 4.93477290E-09-5.38195751E-13-6.04671553E+04 2.48470047E+01                   4
END                                                                             
