THERMO                                                                          
   300.000  1500.000  5000.000                                                  
26_DMH            0529  c   9h  20    0    0G   300.000  5000.000 1389.000     1
 2.62173440E+01 4.91034268E-02-1.67643083E-05 2.59934643E-09-1.50667296E-13    2
-4.43133776E+04-1.18093113E+02-4.04598519E+00 1.09478720E-01-5.88711844E-05    3
 1.40410255E-08-9.62630435E-13-3.27139001E+04 4.81951798E+01                   4
RO2_1             0529  c   9h  19o   2    0G   300.000  5000.000 1392.000     1
 3.05245316E+01 4.81175570E-02-1.64537850E-05 2.55411643E-09-1.48169964E-13    2
-3.90598243E+04-1.37368540E+02-3.72686389E+00 1.21131095E-01-7.34867519E-05    3
 2.17521247E-08-2.45309381E-12-2.64534322E+04 4.90836108E+01                   4
RO2_2             0529  c   9h  19o   2    0G   300.000  5000.000 1391.000     1
 3.09668533E+01 4.76888845E-02-1.62936377E-05 2.52779510E-09-1.46582370E-13    2
-4.31914445E+04-1.39865031E+02-2.58819983E+00 1.20041320E-01-7.41258588E-05    3
 2.28391142E-08-2.77908887E-12-3.08978562E+04 4.25477741E+01                   4
RO2_3             0529  c   9h  19o   2    0G   300.000  5000.000 1392.000     1
 3.07498153E+01 4.78740816E-02-1.63576011E-05 2.53777937E-09-1.47163476E-13    2
-4.11738750E+04-1.37435469E+02-2.78519607E+00 1.19582204E-01-7.27698766E-05    3
 2.17958715E-08-2.52247467E-12-2.88408335E+04 4.50589780E+01                   4
RO2_4             0529  c   9h  19o   2    0G   300.000  5000.000 1391.000     1
 3.08025273E+01 4.78663704E-02-1.63635830E-05 2.53964818E-09-1.47311225E-13    2
-4.16793602E+04-1.38613701E+02-2.99127485E+00 1.20221585E-01-7.34606563E-05    3
 2.21550002E-08-2.59660511E-12-2.92553255E+04 4.52649429E+01                   4
R_1               0529  c   9h  19    0    0G   300.000  5000.000 1391.000     1
 2.67645783E+01 4.60776857E-02-1.57173965E-05 2.43557220E-09-1.41115839E-13    2
-1.91332500E+04-1.18808639E+02-3.01409134E+00 1.08564670E-01-6.36931869E-05    3
 1.82941170E-08-2.00956275E-12-8.01921554E+03 4.37385188E+01                   4
R_2               0529  c   9h  19    0    0G   300.000  5000.000 1389.000     1
 2.63901349E+01 4.65066059E-02-1.58898584E-05 2.46504327E-09-1.42935048E-13    2
-2.13764775E+04-1.14215361E+02-2.33157424E+00 1.03510712E-01-5.52409881E-05    3
 1.29064262E-08-8.19124640E-13-1.03374510E+04 4.37086585E+01                   4
R_3               0529  c   9h  19    0    0G   300.000  5000.000 1391.000     1
 2.65668938E+01 4.62643987E-02-1.57857522E-05 2.44663686E-09-1.41775567E-13    2
-2.04141173E+04-1.16858712E+02-2.75252434E+00 1.06594652E-01-6.04604661E-05    3
 1.62435894E-08-1.55552365E-12-9.35796703E+03 4.35948684E+01                   4
R_4               0529  c   9h  19    0    0G   300.000  5000.000 1389.000     1
 2.66720321E+01 4.62661142E-02-1.58068729E-05 2.45210312E-09-1.42182625E-13    2
-2.11529455E+04-1.17802973E+02-2.87412769E+00 1.06849816E-01-6.04574033E-05    3
 1.61501263E-08-1.53055437E-12-9.98212631E+03 4.39807735E+01                   4
c9ooh_1b          0529  c   9h  19o   2    0G   300.000  5000.000 1394.000     1
 3.17746431E+01 4.67768856E-02-1.59292220E-05 2.46573415E-09-1.42759520E-13    2
-3.03057695E+04-1.42022066E+02-2.32576920E+00 1.23274263E-01-8.07908965E-05    3
 2.72493365E-08-3.75261964E-12-1.81250279E+04 4.22753772E+01                   4
c9ooh_1c          0529  c   9h  19o   2    0G   300.000  5000.000 1392.000     1
 3.13604344E+01 4.72819711E-02-1.61375087E-05 2.50180603E-09-1.45004341E-13    2
-3.32973508E+04-1.38897639E+02-1.93251371E+00 1.19030065E-01-7.33058775E-05    3
 2.24260439E-08-2.68796452E-12-2.11102329E+04 4.20799651E+01                   4
c9ooh_1d          0529  c   9h  19o   2    0G   300.000  5000.000 1394.000     1
 3.15696568E+01 4.70095661E-02-1.60220295E-05 2.48149524E-09-1.43727825E-13    2
-3.19673064E+04-1.39942660E+02-2.10888966E+00 1.21372432E-01-7.75612818E-05    3
 2.51894422E-08-3.29802566E-12-1.98208288E+04 4.24920457E+01                   4
c9ooh_1e          0529  c   9h  19o   2    0G   300.000  5000.000 1393.000     1
 3.16665098E+01 4.69762851E-02-1.60218606E-05 2.48268457E-09-1.43847448E-13    2
-3.26393648E+04-1.40821785E+02-2.16111686E+00 1.21445580E-01-7.74018418E-05    3
 2.50159808E-08-3.25435181E-12-2.04135204E+04 4.25054973E+01                   4
c9ooh_1f          0529  c   9h  19o   2    0G   300.000  5000.000 1393.000     1
 3.16304218E+01 4.69722221E-02-1.60126818E-05 2.48043384E-09-1.43683039E-13    2
-3.18684327E+04-1.39756543E+02-1.95747000E+00 1.20847905E-01-7.68176991E-05    3
 2.47547534E-08-3.20869190E-12-1.97225958E+04 4.22948193E+01                   4
c9ooh_1g          0529  c   9h  19o   2    0G   300.000  5000.000 1393.000     1
 3.13859675E+01 4.72264690E-02-1.61106828E-05 2.49680295E-09-1.44679521E-13    2
-3.28049740E+04-1.37397360E+02-1.62341434E+00 1.18086279E-01-7.21385499E-05    3
 2.17508419E-08-2.54112993E-12-2.07014485E+04 4.21242290E+01                   4
c9ooh_2a          0529  c   9h  19o   2    0G   300.000  5000.000 1395.000     1
 3.22200563E+01 4.62798567E-02-1.57306529E-05 2.43184567E-09-1.40667041E-13    2
-3.37488973E+04-1.44432782E+02-1.42943390E+00 1.23516433E-01-8.35710380E-05    3
 2.96512799E-08-4.35761294E-12-2.18857007E+04 3.68374052E+01                   4
c9ooh_2c          0529  c   9h  19o   2    0G   300.000  5000.000 1395.000     1
 3.20094779E+01 4.65043799E-02-1.58182939E-05 2.44659459E-09-1.41569307E-13    2
-3.56545272E+04-1.43118042E+02-1.27702808E+00 1.21758228E-01-8.05181813E-05    3
 2.77013176E-08-3.92918149E-12-2.38038432E+04 3.66054630E+01                   4
c9ooh_2d          0529  c   9h  19o   2    0G   300.000  5000.000 1395.000     1
 3.20765739E+01 4.64679203E-02-1.58103281E-05 2.44583709E-09-1.41545046E-13    2
-3.65525383E+04-1.43670167E+02-1.60565269E+00 1.23071355E-01-8.22372048E-05    3
 2.86691667E-08-4.12871186E-12-2.46064204E+04 3.80287553E+01                   4
c9ooh_2e          0529  c   9h  19o   2    0G   300.000  5000.000 1395.000     1
 3.20311468E+01 4.65124293E-02-1.58268247E-05 2.44851796E-09-1.41705015E-13    2
-3.58058564E+04-1.42398432E+02-1.19166288E+00 1.21372276E-01-7.98771278E-05    3
 2.72887865E-08-3.83767053E-12-2.39529154E+04 3.70697232E+01                   4
c9ooh_2f          0529  c   9h  19o   2    0G   300.000  5000.000 1393.000     1
 3.18283089E+01 4.67774321E-02-1.59390132E-05 2.46821499E-09-1.42941019E-13    2
-3.68124192E+04-1.40521874E+02-8.76893559E-01 1.18480354E-01-7.47831979E-05    3
 2.39792227E-08-3.10101864E-12-2.49484833E+04 3.68508166E+01                   4
c9ooh_2g          0529  c   9h  19o   2    0G   300.000  5000.000 1395.000     1
 3.21733994E+01 4.63224430E-02-1.57458484E-05 2.43425854E-09-1.40808828E-13    2
-3.44422241E+04-1.43690946E+02-1.40992415E+00 1.23351507E-01-8.33458448E-05    3
 2.95313989E-08-4.33466207E-12-2.25955630E+04 3.72445316E+01                   4
c9ooh_3a          0529  c   9h  19o   2    0G   300.000  5000.000 1395.000     1
 3.19118727E+01 4.66450008E-02-1.58795977E-05 2.45749939E-09-1.42258419E-13    2
-3.23367701E+04-1.42719354E+02-1.88740621E+00 1.23062742E-01-8.15367517E-05    3
 2.80441507E-08-3.96926577E-12-2.03096481E+04 3.97616968E+01                   4
c9ooh_3b          0529  c   9h  19o   2    0G   300.000  5000.000 1392.000     1
 3.15919001E+01 4.70421880E-02-1.60448468E-05 2.48627426E-09-1.44055753E-13    2
-3.57103147E+04-1.40002344E+02-9.30566339E-01 1.16894835E-01-7.14539890E-05    3
 2.16799259E-08-2.57255973E-12-2.37748989E+04 3.68816181E+01                   4
c9ooh_3d          0529  c   9h  19o   2    0G   300.000  5000.000 1394.000     1
 3.18445177E+01 4.67365624E-02-1.59191178E-05 2.46452124E-09-1.42702629E-13    2
-3.37670494E+04-1.42496130E+02-1.49728511E+00 1.20878242E-01-7.80721579E-05    3
 2.58825010E-08-3.49786969E-12-2.17796863E+04 3.79537746E+01                   4
c9ooh_3e          0529  c   9h  19o   2    0G   300.000  5000.000 1394.000     1
 3.18520240E+01 4.67142499E-02-1.59078381E-05 2.46238274E-09-1.42562674E-13    2
-3.32317204E+04-1.41617476E+02-1.25149908E+00 1.20075154E-01-7.70724861E-05    3
 2.53232159E-08-3.38158666E-12-2.13066850E+04 3.76287966E+01                   4
c9ooh_3f          0529  c   9h  19o   2    0G   300.000  5000.000 1392.000     1
 3.16430802E+01 4.69917498E-02-1.60258673E-05 2.48314390E-09-1.43866593E-13    2
-3.43130115E+04-1.39413810E+02-9.92908813E-01 1.17430217E-01-7.23559519E-05    3
 2.22554415E-08-2.69978740E-12-2.23690892E+04 3.79680138E+01                   4
c9ooh_3g          0529  c   9h  19o   2    0G   300.000  5000.000 1395.000     1
 3.19426738E+01 4.65821290E-02-1.58499772E-05 2.45206415E-09-1.41909544E-13    2
-3.20336490E+04-1.43601394E+02-1.70798090E+00 1.22567905E-01-8.09830287E-05    3
 2.77413819E-08-3.90525287E-12-2.00535765E+04 3.81049368E+01                   4
c9ooh_4a          0529  c   9h  19o   2    0G   300.000  5000.000 1395.000     1
 3.20375993E+01 4.65028839E-02-1.58230041E-05 2.44789613E-09-1.41668707E-13    2
-3.31546140E+04-1.43215478E+02-1.79693479E+00 1.23206390E-01-8.19409480E-05    3
 2.83092310E-08-4.02481772E-12-2.11401348E+04 3.93751454E+01                   4
c9ooh_4b          0529  c   9h  19o   2    0G   300.000  5000.000 1393.000     1
 3.16436269E+01 4.69931102E-02-1.60267660E-05 2.48333112E-09-1.43879467E-13    2
-3.61304454E+04-1.40453695E+02-1.45249972E+00 1.19078729E-01-7.45097245E-05    3
 2.34702841E-08-2.94957383E-12-2.40852662E+04 3.91941508E+01                   4
c9ooh_4c          0529  c   9h  19o   2    0G   300.000  5000.000 1394.000     1
 3.18238019E+01 4.67253178E-02-1.59087531E-05 2.46221941E-09-1.42540654E-13    2
-3.42741144E+04-1.41193823E+02-1.45587808E+00 1.20860188E-01-7.82060803E-05    3
 2.60068183E-08-3.52832980E-12-2.23237451E+04 3.88705767E+01                   4
qo_11             0529  c   9h  18o   1    0G   300.000  5000.000 1392.000     1
 2.71993741E+01 4.59970140E-02-1.57558695E-05 2.44867997E-09-1.42172729E-13    2
-4.32236729E+04-1.23049464E+02-6.25920727E+00 1.16597530E-01-6.97359211E-05    3
 1.98664892E-08-2.06033032E-12-3.08611842E+04 5.93025688E+01                   4
qo_12             0529  c   9h  18o   1    0G   300.000  5000.000 1392.000     1
 2.77617968E+01 4.53690211E-02-1.55049529E-05 2.40585843E-09-1.39528785E-13    2
-4.61221565E+04-1.25773721E+02-4.64319850E+00 1.15318523E-01-7.13582716E-05    3
 2.19248144E-08-2.63976899E-12-3.42751068E+04 5.03302986E+01                   4
qo_13             0529  c   9h  18o   1    0G   300.000  5000.000 1392.000     1
 2.74155083E+01 4.57647799E-02-1.56645995E-05 2.43323912E-09-1.41224318E-13    2
-4.62049264E+04-1.24468835E+02-5.60804703E+00 1.15907987E-01-7.00093662E-05    3
 2.04265441E-08-2.23094392E-12-3.40378849E+04 5.53678046E+01                   4
qo_14             0529  c   9h  18o   1    0G   300.000  5000.000 1392.000     1
 2.72416538E+01 4.59173353E-02-1.57186572E-05 2.44185439E-09-1.41734010E-13    2
-5.50438970E+04-1.25150181E+02-6.35789703E+00 1.17742286E-01-7.19551910E-05    3
 2.13951327E-08-2.41487694E-12-4.27128927E+04 5.76566967E+01                   4
qo_15             0529  c   9h  18o   1    0G   300.000  5000.000 1392.000     1
 2.71401148E+01 4.60204778E-02-1.57581547E-05 2.44844200E-09-1.42135121E-13    2
-5.77712661E+04-1.27239841E+02-6.68715889E+00 1.18516905E-01-7.28109073E-05    3
 2.18631465E-08-2.51371003E-12-4.53702010E+04 5.67490252E+01                   4
qo_16             0529  c   9h  18o   1    0G   300.000  5000.000 1392.000     1
 2.73617973E+01 4.58135821E-02-1.56823929E-05 2.43613621E-09-1.41398460E-13    2
-5.68172146E+04-1.29505904E+02-6.71686249E+00 1.20447458E-01-7.67184590E-05    3
 2.45958584E-08-3.15473084E-12-4.44615113E+04 5.53208499E+01                   4
qo_23             0529  c   9h  18o   1    0G   300.000  5000.000 1391.000     1
 2.79381422E+01 4.52259410E-02-1.54570541E-05 2.39853081E-09-1.39108053E-13    2
-4.84416377E+04-1.26118720E+02-3.58801246E+00 1.12539820E-01-6.84005345E-05    3
 2.05154312E-08-2.39037415E-12-3.68248485E+04 4.55003163E+01                   4
qo_24             0529  c   9h  18o   1    0G   300.000  5000.000 1393.000     1
 2.79188426E+01 4.52207089E-02-1.54504304E-05 2.39699299E-09-1.38998074E-13    2
-5.05434795E+04-1.27772169E+02-5.15582252E+00 1.17987081E-01-7.53389117E-05    3
 2.43234179E-08-3.15248083E-12-3.85886665E+04 5.14848139E+01                   4
qo_25             0529  c   9h  18o   1    0G   300.000  5000.000 1394.000     1
 2.76545164E+01 4.54363437E-02-1.55230755E-05 2.40816919E-09-1.39642789E-13    2
-5.92041475E+04-1.28080490E+02-5.94401031E+00 1.19769974E-01-7.72038472E-05    3
 2.52522897E-08-3.32901801E-12-4.71046500E+04 5.38632911E+01                   4
qo_26             0529  c   9h  18o   1    0G   300.000  5000.000 1393.000     1
 2.78230674E+01 4.52644031E-02-1.54575630E-05 2.39730978E-09-1.38985228E-13    2
-6.00711492E+04-1.31941067E+02-6.42224875E+00 1.22883074E-01-8.23829555E-05    3
 2.86057119E-08-4.08420218E-12-4.79064399E+04 5.28775917E+01                   4
qo_34             0529  c   9h  18o   1    0G   300.000  5000.000 1392.000     1
 2.78051976E+01 4.53144987E-02-1.54821059E-05 2.40186076E-09-1.39278215E-13    2
-4.74140937E+04-1.25822009E+02-4.09524293E+00 1.13653306E-01-6.93755520E-05    3
 2.08610879E-08-2.42685969E-12-3.56985524E+04 4.77262589E+01                   4
qo_35             0529  c   9h  18o   1    0G   300.000  5000.000 1393.000     1
 2.76740170E+01 4.54460309E-02-1.55324009E-05 2.41026217E-09-1.39790894E-13    2
-4.91284347E+04-1.27046310E+02-5.41588570E+00 1.17305335E-01-7.33644232E-05    3
 2.28308450E-08-2.79236820E-12-3.70863325E+04 5.26063538E+01                   4
c9h18_1           0529  c   9h  18    0    0G   300.000  5000.000 1390.000     1
 2.55725931E+01 4.46468306E-02-1.52473001E-05 2.36466218E-09-1.37087608E-13    2
-2.97872999E+04-1.14011685E+02-3.89080774E+00 1.06429963E-01-6.25630932E-05    3
 1.79132389E-08-1.94636040E-12-1.87944980E+04 4.68168783E+01                   4
c9h18_2           0529  c   9h  18    0    0G   300.000  5000.000 1389.000     1
 2.55587901E+01 4.46611715E-02-1.52526801E-05 2.36553520E-09-1.37139407E-13    2
-3.04219576E+04-1.12963361E+02-2.87648647E+00 1.02790142E-01-5.78270034E-05    3
 1.52564315E-08-1.40295665E-12-1.96564374E+04 4.27953857E+01                   4
c9h18_3           0529  c   9h  18    0    0G   300.000  5000.000 1391.000     1
 2.56011328E+01 4.45804228E-02-1.52144760E-05 2.35845918E-09-1.36681289E-13    2
-3.03898106E+04-1.13755450E+02-3.13094892E+00 1.04130708E-01-5.98384959E-05    3
 1.64324023E-08-1.64292667E-12-1.96044618E+04 4.33210839E+01                   4
c8h16-6-2         0529  c   8h  16    0    0G   300.000  5000.000 1392.000     1
 2.25185417E+01 3.96246532E-02-1.35200007E-05 2.09548610E-09-1.21429466E-13    2
-2.37688219E+04-9.74851848E+01-3.67979984E+00 9.46361534E-02-5.56050817E-05    3
 1.58378706E-08-1.69208833E-12-1.40172773E+04 4.54676189E+01                   4
c8h16-5-2         0529  c   8h  16    0    0G   300.000  5000.000 1391.000     1
 2.25237406E+01 3.96531044E-02-1.35366813E-05 2.09877285E-09-1.21647473E-13    2
-2.49670043E+04-9.68723611E+01-2.68855211E+00 9.11851059E-02-5.11605904E-05    3
 1.33725951E-08-1.19361446E-12-1.54321071E+04 4.12156036E+01                   4
dc6h12            0529  c   6h  12    0    0G   300.000  5000.000 1391.000     1
 1.67480256E+01 2.93752718E-02-1.00128573E-05 1.55083256E-09-8.98233699E-14    2
-1.55908853E+04-6.70242616E+01-2.22555561E+00 6.94637587E-02-4.11722715E-05    3
 1.20751320E-08-1.37865861E-12-8.53529124E+03 3.64486106E+01                   4
ch3coch3          0529  c   3h   6o   1    0G   300.000  5000.000 1389.000     1
 1.00021932E+01 1.49745651E-02-5.09878156E-06 7.89123048E-10-4.56804940E-14    2
-3.15615204E+04-2.82318721E+01 1.14693249E+00 3.30207631E-02-1.83603122E-05    3
 4.87883767E-09-4.71468882E-13-2.81892947E+04 2.03174885E+01                   4
c3h6              0529  c   3h   6    0    0G   300.000  5000.000 1392.000     1
 7.80298461E+00 1.42210218E-02-4.82208570E-06 7.44144855E-10-4.29878642E-14    2
-1.90598630E+03-1.92865441E+01-2.66178276E-01 3.09732472E-02-1.75662047E-05    3
 4.93477290E-09-5.38195751E-13 1.13828036E+03 2.48470047E+01                   4
ic5h11cho         0529  c   6h  12o   1    0G   300.000  5000.000 1387.000     1
 1.86583088E+01 3.04912297E-02-1.04409927E-05 1.62224476E-09-9.41696560E-14    2
-4.12860005E+04-7.48271524E+01-1.17086551E+00 7.03340616E-02-3.86086341E-05    3
 9.51627698E-09-7.17888827E-13-3.37176074E+04 3.40228680E+01                   4
cc5h10            0529  c   5h  10    0    0G   300.000  5000.000 1392.000     1
 1.37941263E+01 2.42816190E-02-8.26372202E-06 1.27852640E-09-7.39937418E-14    2
-1.11080292E+04-5.12110027E+01-1.43855708E+00 5.65926137E-02-3.36204472E-05    3
 1.00094051E-08-1.18208578E-12-5.44729696E+03 3.18306004E+01                   4
ic3h7cho          0529  c   4h   8o   1    0G   300.000  5000.000 1386.000     1
 1.27755393E+01 2.02936151E-02-6.94169468E-06 1.07774389E-09-6.25281585E-14    2
-3.27746522E+04-4.35444007E+01 4.98642824E-01 4.41159186E-02-2.27028873E-05    3
 4.85700372E-09-2.05037083E-13-2.79928913E+04 2.41671040E+01                   4
ic4h8             0529  c   4h   8    0    0G   300.000  5000.000 1391.000     1
 1.08366442E+01 1.92161466E-02-6.52997278E-06 1.00922014E-09-5.83632559E-14    2
-8.01103758E+03-3.52389927E+01-5.77567859E-01 4.32948944E-02-2.53769423E-05    3
 7.52060748E-09-8.96451838E-13-3.74165059E+03 2.70571026E+01                   4
ic4h9cho          0529  c   5h  10o   1    0G   300.000  5000.000 1387.000     1
 1.57826240E+01 2.53378181E-02-8.67284219E-06 1.34714672E-09-7.81849076E-14    2
-3.75699663E+04-6.05481788E+01-6.28749062E-01 5.85332892E-02-3.24946839E-05    3
 8.26353181E-09-6.88304390E-13-3.13227439E+04 2.94710868E+01                   4
END                                                                             
